LAMMPS (7 Feb 2024 - Update 1)
# Molecular Dynamics - Flying Ice Cube Artifact

# 1) Initialization
variable T equal 300

units real
atom_style molecular
boundary f f f
pair_style lj/cut 14

bond_style harmonic
angle_style harmonic
dihedral_style opls
improper_style harmonic

special_bonds lj 0.0 0.0 0.5

# 2) System definition
read_data flying_ice_cube_cnt_molecular.data
Reading data file ...
  orthogonal box = (-40 -40 -40) to (40 40 40)
  reading atoms ...
  690 atoms
  reading velocities ...
  690 velocities
  scanning bonds ...
  scanning angles ...
  scanning dihedrals ...
  scanning impropers ...
  reading bonds ...
  1005 bonds
  reading angles ...
  1950 angles
  reading dihedrals ...
  3791 dihedrals
  reading impropers ...
  630 impropers
Finding 1-2 1-3 1-4 neighbors ...
     3 = max # of 1-2 neighbors
     6 = max # of 1-3 neighbors
    18 = max # of 1-4 neighbors
    18 = max # of special neighbors

# 3) Simulation settings
include ../../cnt-unbreakable-bonds/opls-aa.lammps
## Bonded & Non-Bonded Potentials. Parameters Taken from OPLS-AA (Optimised Potentials for Liquid Simulations-All-Atom) force field
pair_coeff 1 1 0.066 3.4
bond_coeff 1 469 1.4
angle_coeff 1 63 120
dihedral_coeff 1 0 7.25 0 0
improper_coeff 1 5 180

group carbon_atoms type 1
690 atoms in group carbon_atoms

# 4) Run
fix nve_ensemble all nve
fix zero_momentum all momentum 100 linear 1 1 1
fix berendsen_thermostat all temp/berendsen 300 300 100
fix recenter_all all recenter 0 0 0

thermo 100
dump dump_all_atoms_per_100_timestep all atom 1000 trajectory-output-data/dump_all_atoms_per_100_timestep.lammpstrj

timestep 1.0
run 10000
Generated 0 of 0 mixed pair_coeff terms from geometric mixing rule
Step          Temp          E_pair         E_mol          TotEng         Press
0   300.00188      588.66967      1980.7099      3185.5169      53.342278
Averages over the last 51 of 101 rows, steps 5000 to 10000:
Temp E_pair E_mol TotEng Press
301.213 611.817 2577.48 3807.92 0.209425
Loop time of 10.4185 on 1 procs for 10000 steps with 690 atoms
