LAMMPS (7 Feb 2024 - Update 1)
# PART B - MOLECULAR DYNAMICS

# 1) Initialization
units lj
dimension 3
atom_style molecular
bond_style harmonic
angle_style harmonic
pair_style lj/cut 2.5
boundary p p p

# 2) System definition
read_data ../energy-minimization/minimized_coordinate.data
Reading data file ...
  orthogonal box = (-20 -20 -20) to (20 20 20)
  reading atoms ...
  1545 atoms
  reading velocities ...
  1545 velocities
  scanning bonds ...
  scanning angles ...
  reading bonds ...
  40 bonds
  reading angles ...
  35 angles
Finding 1-2 1-3 1-4 neighbors ...
     2 = max # of 1-2 neighbors
     2 = max # of 1-3 neighbors
     4 = max # of 1-4 neighbors
     6 = max # of special neighbors

# 3) Visualization
thermo 1000
dump dump_all_atoms_per_100_timestep all atom 1000 dump_all_atoms_per_100_timestep.md.lammpstrj

# 4) Run
fix fix_nve_ensemble all nve
fix fix_langevin_thermostat all langevin 1 1 0.1 94728

run 500000
Generated 0 of 1 mixed pair_coeff terms from geometric mixing rule
Step          Temp          E_pair         E_mol          TotEng         Press
0   0             -0.9900584      0.00026786123 -0.98979054    -0.00018688054
Averages over the last 251 of 501 rows, steps 250000 to 500000:
Temp E_pair E_mol TotEng Press
1.00244 -0.213566 0.0370198 1.32614 0.0213795
Loop time of 52.9528 on 1 procs for 500000 steps with 1545 atoms
