LAMMPS (7 Feb 2024 - Update 1)
# PART A - MOLECULAR DYNAMICS

# 1) Initialization
units lj
dimension 3
atom_style atomic
pair_style lj/cut 2.5
boundary p p p

# 2) System definition
read_data ../improved-min-input/minimized_coordinate.data
Reading data file ...
  orthogonal box = (-20 -20 -20) to (20 20 20)
  reading atoms ...
  1150 atoms
  reading velocities ...
  1150 velocities

region region_inside_cylinder cylinder z 0 0 10 INF INF side in
region region_outside_cylinder cylinder z 0 0 10 INF INF side out

group group_atom_type_1 type 1
1000 atoms in group group_atom_type_1
group group_atom_type_2 type 2
150 atoms in group group_atom_type_2

group group_region_inside_cylinder region region_inside_cylinder
149 atoms in group group_region_inside_cylinder
group group_region_outside_cylinder region region_outside_cylinder
1001 atoms in group group_region_outside_cylinder

group group_atom_type_1_inside_cylinder intersect group_atom_type_1 group_region_inside_cylinder
0 atoms in group group_atom_type_1_inside_cylinder
group group_atom_type_2_outside_cylinder intersect group_atom_type_2 group_region_outside_cylinder
1 atoms in group group_atom_type_2_outside_cylinder

delete_atoms group group_atom_type_1_inside_cylinder
Deleted 0 atoms, new total = 1150
delete_atoms group group_atom_type_2_outside_cylinder
Deleted 1 atoms, new total = 1149

# 3) Visualization
thermo 1000
dump dump_all_atoms_per_100_timestep all atom 1000 dump_all_atoms_per_100_timestep.md.lammpstrj

variable number_atom_type_1_inside_cylinder equal count(group_atom_type_1,region_inside_cylinder)
variable number_atom_type_2_inside_cylinder equal count(group_atom_type_2,region_inside_cylinder)

fix fix_count_atom_type_1_inside_cylinder all ave/time 10 200 2000 v_number_atom_type_1_inside_cylinder     file atom-population/output_atom_type_1_population_inside_cylinder_vs_time.dat
fix fix_count_atom_type_2_inside_cylinder all ave/time 10 200 2000 v_number_atom_type_2_inside_cylinder     file atom-population/output_atom_type_2_population_inside_cylinder_vs_time.dat

compute compute_atom_type_1_coordination_number group_atom_type_1 coord/atom cutoff 2.0 group group_atom_type_2
compute compute_average_atom_type_1_coordination_number all reduce ave c_compute_atom_type_1_coordination_number

fix fix_average_atom_type_1_coordination_number all ave/time 10 200 2000     c_compute_average_atom_type_1_coordination_number file atom-coordination-number/output_average_atom_type_1_coordination_number.dat

# 5) Run
velocity all create 1.0 4928459 mom yes rot yes dist gaussian
fix fix_nve_ensemble all nve
fix fix_langevin_thermostat  all langevin 1.0 1.0 0.1 1530917 zero yes
timestep 0.005
run 300000
Generated 1 of 1 mixed pair_coeff terms from geometric mixing rule
Step          Temp          E_pair         E_mol          TotEng         Press
0   1             -0.13907746     0              1.3596171      0.015860171
Averages over the last 151 of 301 rows, steps 150000 to 300000:
Temp E_pair E_mol TotEng Press
1.00016 -0.171045 0 1.3279 0.0174027
Loop time of 28.8317 on 1 procs for 300000 steps with 1149 atoms

write_data atom-mixing/atom_type_1_atom_type_2_mixing.data
System init for write_data ...
Generated 1 of 1 mixed pair_coeff terms from geometric mixing rule
