LAMMPS (7 Feb 2024 - Update 1)
# Molecular Dynamics - Input Script for Single PEG

# 1) Initialization
units real
atom_style full
bond_style harmonic
angle_style harmonic
dihedral_style harmonic
pair_style lj/cut/coul/long 12
kspace_style pppm 1e-5
special_bonds lj 0.0 0.0 0.5 coul 0.0 0.0 1.0 angle yes dihedral yes

# 2) System Definition
read_data PEG_molecular.data
Reading data file ...
  orthogonal box = (-33 -10 -10) to (33 10 10)
  reading atoms ...
  101 atoms
  scanning bonds ...
  scanning angles ...
  scanning dihedrals ...
  reading bonds ...
  100 bonds
  reading angles ...
  183 angles
  reading dihedrals ...
  210 dihedrals
Finding 1-2 1-3 1-4 neighbors ...
     4 = max # of 1-2 neighbors
     6 = max # of 1-3 neighbors
    12 = max # of 1-4 neighbors
    14 = max # of special neighbors

# 3) Simulation Settings
include ../parameters.lammps
mass 1 15.9994 # PEG O
mass 2 12.011 # PEG C
mass 3 1.008 # PEG H
mass 4 1.008 # PEG H
mass 5 12.011 # PEG C
mass 6 15.9994 # PEG O
mass 7 15.9994 # PEG O
mass 8 15.9994 # H2O O
mass 9 1.008 # H2O H

pair_coeff 1 1 0.25265643 2.8491607
pair_coeff 2 2 0.06630155 3.5811794
pair_coeff 3 3 0.028293679 2.373408
pair_coeff 4 4 0.0 0.0
pair_coeff 5 5 0.24501823 2.8114421
pair_coeff 6 6 0.11949714 3.1000042
pair_coeff 7 7 0.11949714 3.1000042
pair_coeff 8 8 0.119431704 3.400251
pair_coeff 9 9 0.0 0.0

bond_coeff 1 400.05737 1.4
bond_coeff 2 400.0343 1.53
bond_coeff 3 155.35373 1.42
bond_coeff 4 143.40344 1.11
bond_coeff 5 621.4149 0.938
bond_coeff 6 442.1606 0.972

angle_coeff 1 47.555878 103.0
angle_coeff 2 50.17089 108.0
angle_coeff 3 30.173132 109.5
angle_coeff 4 47.69405 109.5
angle_coeff 5 55.12715 109.5
angle_coeff 6 47.634956 109.6
angle_coeff 7 55.113907 111.0
angle_coeff 8 59.79372 115.0
angle_coeff 9 52.476738 107.57
angle_coeff 10 54.956596 107.6
angle_coeff 11 54.993103 110.3
angle_coeff 12 55.0234 111.4
angle_coeff 13 30.173132 110.0
angle_coeff 14 509.99622 112.0
angle_coeff 15 47.555878 103.0

dihedral_coeff 1 0.30114722 1 3
dihedral_coeff 2 1.414914 1 3
dihedral_coeff 3 0.0 1 1

# 4) Run
## Energy minimization will be short so output trajectory & thermodynamic data every 10 timesteps
dump dump_all_atoms all atom 10 trajectory-output-data/dump_all_atoms.lammpstrj
thermo 1
minimize 1.0e-4 1.0e-6 100 1000
PPPM initialization ...
  G vector (1/distance) = 0.18534274
  grid = 15 6 6
  stencil order = 5
  estimated absolute RMS force accuracy = 0.0015814329
  estimated relative force accuracy = 4.7624383e-06
  3d grid and FFT values/proc = 2420 540
Generated 36 of 36 mixed pair_coeff terms from geometric mixing rule
Step          Temp          E_pair         E_mol          TotEng         Press
0   0              49.189606      34.091382      83.280988      167.58194
Loop time of 0.0123774 on 1 procs for 47 steps with 101 atoms

Minimization stats:
  Stopping criterion = energy tolerance
  Energy initial, next-to-last, final =
  Force two-norm initial, final = 242.94939 4.009623
  Force max component initial, final = 45.416604 0.75959614
  Final line search alpha, max atom move = 0.057578707 0.043736563
  Iterations, force evaluations = 47 94

## Cancel previous dump command and replace with lower frequency dump command
undump dump_all_atoms
reset_timestep 0

## Equilibrate PEG in the NVT ensemble (NVE fix + Berendsen thermostat temp control == NVT)
fix nve_ensemble all nve
fix berendsen_thermostat all temp/berendsen 300 300 100

## `dump_modify` ensures that new trajectory data is appended to the previously created `dump_all_atoms.lammpstrj` file
dump dump_all_atoms all atom 1000 trajectory-output-data/dump_all_atoms.lammpstrj
dump_modify dump_all_atoms append yes
thermo 100

variable PEG_temp equal temp
fix PEG_ave_temp all ave/time 10 10 100 v_PEG_temp file ave-time-output-data/PEG_temperature.dat

timestep 1.0
run 10000
PPPM initialization ...
  G vector (1/distance) = 0.18534274
  grid = 15 6 6
  stencil order = 5
  estimated absolute RMS force accuracy = 0.0015814329
  estimated relative force accuracy = 4.7624383e-06
  3d grid and FFT values/proc = 2420 540
Generated 36 of 36 mixed pair_coeff terms from geometric mixing rule
Step          Temp          E_pair         E_mol          TotEng         Press
0   0              49.933147      12.106942      62.040089     -64.274039
Averages over the last 51 of 101 rows, steps 5000 to 10000:
Temp E_pair E_mol TotEng Press
303.444 42.7261 92.0714 225.248 -30.5748
Loop time of 1.23692 on 1 procs for 10000 steps with 101 atoms

write_data PEG.data
System init for write_data ...
PPPM initialization ...
  G vector (1/distance) = 0.18534274
  grid = 15 6 6
  stencil order = 5
  estimated absolute RMS force accuracy = 0.0015814329
  estimated relative force accuracy = 4.7624383e-06
  3d grid and FFT values/proc = 2420 540
Generated 36 of 36 mixed pair_coeff terms from geometric mixing rule
