# PART B - MOLECULAR DYNAMICS

# 1) Initialization
units lj
dimension 3
atom_style atomic
pair_style lj/cut 2.5
boundary p p p

# 2) System definition
read_data ../../energy-minimization/data/raw/topology/minimized_coordinate.data
Reading data file ...
  orthogonal box = (-20 -20 -20) to (20 20 20)
  reading atoms ...
  16000 atoms
  reading velocities ...
  16000 velocities
group atom_type_1 type 1
8000 atoms in group atom_type_1
group atom_type_2 type 2
8000 atoms in group atom_type_2

# 3) Visualization
thermo 1000
dump dump_all_atoms_per_100_timestep all atom 1000 ../data/raw/trajectory/dump_all_atoms_per_100_timestep.md.lammpstrj

compute compute_atom_type_1_2_coordination_number atom_type_1 coord/atom cutoff 2.0 group atom_type_2
compute compute_average_atom_type_1_2_coordination_number all reduce ave c_compute_atom_type_1_2_coordination_number

fix fix_average_atom_type_1_2_coordination_number all ave/time 10 200 2000     c_compute_average_atom_type_1_2_coordination_number     file ../data/raw/atom-coordination-number/average_atom_type_1_2_coordination_number.dat

# 4) Run
velocity all create 1.0 4928459 mom yes rot yes dist gaussian
fix fix_nph_ensemble all nph iso 1.0 1.0 0.5
timestep 0.005
run 100000
Generated 0 of 1 mixed pair_coeff terms from geometric mixing rule
Step          Temp          E_pair         E_mol          TotEng         Press          Volume
0   1             -19.768421      0             -18.268515      0.16174717     64000
Averages over the last 51 of 101 rows, steps 50000 to 100000:
Temp E_pair E_mol TotEng Press Volume
3.61068 -24.6046 0 -19.1889 0.995206 21483.8
Loop time of 1100.87 on 1 procs for 100000 steps with 16000 atoms
