# Molecular Dynamics - Stress-Strain Curve of Carbon Nanotube with Unbreakable Bonds

# 1) Initialization
## Define simulation temperature, T=300K
variable T equal 300

units real
atom_style molecular
boundary f f f
pair_style lj/cut 14

bond_style harmonic
angle_style harmonic
dihedral_style opls
improper_style harmonic

special_bonds lj 0.0 0.0 0.5

# 2) System definition
## Import VMD generated initial carbon nanotube topography
read_data ../data/raw/topology/cnt_molecular.data
Reading data file ...
  orthogonal box = (-40 -40 -12.130411) to (40 40 67.869589)
  reading atoms ...
  700 atoms
  scanning bonds ...
  scanning angles ...
  scanning dihedrals ...
  scanning impropers ...
  reading bonds ...
  1035 bonds
  reading angles ...
  2040 angles
  reading dihedrals ...
  4030 dihedrals
  reading impropers ...
  670 impropers
Finding 1-2 1-3 1-4 neighbors ...
     3 = max # of 1-2 neighbors
     6 = max # of 1-3 neighbors
    18 = max # of 1-4 neighbors
    18 = max # of special neighbors

# 3) Simulation settings
## Import OPLS-AA Force Field Bonded & Non-Bonded Potentials
include ../data/force-field/opls-aa.lammps
## Bonded & Non-Bonded Potentials. Parameters Taken from OPLS-AA (Optimised Potentials for Liquid Simulations-All-Atom) force field
pair_coeff 1 1 0.066 3.4
bond_coeff 1 469 1.4
angle_coeff 1 63 120
dihedral_coeff 1 0 7.25 0 0
improper_coeff 1 5 180

## Calculate the negative of the x, y & z centre of mass (cm) components of the carbon_atoms group
## Recenter the carbon nanotube at the origin (0, 0, 0) by displacing them by the calculated center of mass variables
group carbon_atoms type 1
700 atoms in group carbon_atoms
variable carbon_xcm equal -1*xcm(carbon_atoms,x)
variable carbon_ycm equal -1*xcm(carbon_atoms,y)
variable carbon_zcm equal -1*xcm(carbon_atoms,z)
displace_atoms carbon_atoms move 8.45130634422529e-18 1.0914862143567e-15 -27.8695884500003
Displacing atoms ...

## Center the simulation box about the origin (0, 0, 0) by altering dimensions to be from -40 to 40 in x, y & z directions
change_box all x final -60 60 y final -60 60 z final -60 60
Changing box ...
  orthogonal box = (-60 -40 -12.130411) to (60 40 67.869589)
  orthogonal box = (-60 -60 -12.130411) to (60 60 67.869589)
  orthogonal box = (-60 -60 -60) to (60 60 60)

## Define top edge region, bottom edge region, & middle region of carbon nanotube
variable zmax equal bound(carbon_atoms,zmax)-0.5 # (- 0.5 Å)
variable zmin equal bound(carbon_atoms,zmin)+0.5 # (+ 0.5 Å)
region region_top block INF INF INF INF 27.3695895499997 INF
region region_bottom block INF INF INF INF INF -27.3695884500003
region region_middle block INF INF INF INF -27.3695884500003 27.3695895499997

## Group atoms according to these regions
group carbon_top region region_top
10 atoms in group carbon_top
group carbon_bottom region region_bottom
10 atoms in group carbon_bottom
group carbon_middle region region_middle
680 atoms in group carbon_middle

# 4) Run
## Initialize velocities of atoms in the carbon_middle group at T (300 K) with no overall translational momentum (`mom yes``) or rotational momentum (`rot yes`)
## As a result of `mom yes` and `rot yes`, the systems net movement and rotation is null
velocity carbon_middle create 300 48455 mom yes rot yes

## Apply the NVE ensemble to the system
fix nve_ensemble all nve

## Calculate the temperature of the carbon_middle group
compute carbon_middle_temp carbon_middle temp

fix berendsen_thermostat carbon_middle temp/berendsen 300 300 100

## Modify Berendsen thermostat fix to use the temperature calculated by carbon_middle_temp compute command
fix_modify berendsen_thermostat temp carbon_middle_temp

## Apply an initial velocity of zero in the x and y directions to the top and bottom carbon groups
## Apply NULL initial velocity to z directions to the top and bottom carbon groups. This ensures this velocity command does not affect the z-direction
velocity carbon_top set 0 0 NULL
velocity carbon_bottom set 0 0 NULL

## Ensure all forces affecting the top and bottom carbon groups are constant in the x and y directions. Because initial velocity is zero, this ensures they remain immobile in the x and y directions during the simulation
## NULL value is set for z-direction parameter, ensuring this `setforce` command will not modify existing forces in the z-direction
fix carbon_top_force carbon_top setforce 0 0 NULL
fix carbon_bottom_force carbon_bottom setforce 0 0 NULL

## Output state of all atoms every 1000 timesteps
dump dump_all_atoms_per_1000_timestep all atom 1000 ../data/raw/trajectory/dump_all_atoms_per_1000_timestep.lammpstrj

## Output thermodynamic data every 100 timesteps. Particularly the temperature of the carbon_middle group
thermo 100
thermo_modify temp carbon_middle_temp

## Set simulation timestep to 1.0 femtoseconds and run initial simulation of 5000 timesteps to equilibrate the system before applying any deformation
timestep 1.0
run 5000
Generated 0 of 0 mixed pair_coeff terms from geometric mixing rule
Step          Temp          E_pair         E_mol          TotEng         Press
0   300            459.34281      2184.6086      3251.1424     -165.71176
Averages over the last 26 of 51 rows, steps 2500 to 5000:
Temp E_pair E_mol TotEng Press
301.734 552.482 2663.38 3826.57 -3.03224
Loop time of 5.58137 on 1 procs for 5000 steps with 700 atoms

## Calculate the distance between the center of mass of the top and bottom carbon groups in the z-direction
variable cnt_length equal xcm(carbon_top,z)-xcm(carbon_bottom,z)

## Calculate strain via equation (change in cnt length - initial cnt length)/initial cnt length) * 100 and output data
variable strain equal 100*(v_cnt_length-55.3906968086669)/55.3906968086669
fix ave_time_1 all ave/time 10 100 1000 v_strain file ../data/raw/stress-strain/output_cnt_strain.dat

## Calculate stress & define variables
variable kcal_to_joule equal 4184 # kcal to J conversion factor
variable Na equal 6.022e23 # Avogadros number
variable Atom equal 1e-10 # 1 Å
variable pi equal 3.14159
variable f_total_kcal equal f_carbon_bottom_force[3]-f_carbon_top_force[3] # kcal/mol/Å
variable f_total_newton equal v_f_total_kcal*4184/6.022e+23/1e-10
variable rad equal 5.2e-10 # Radius of carbon nanotube
variable dC equal 3.4e-10 # Effective diameter of the carbon atom
variable A equal 3.14159*5.2e-10*3.4e-10
variable stress equal v_f_total_newton/5.55433112e-19

fix ave_time_2 all ave/time 10 100 1000 v_stress file ../data/raw/stress-strain/output_cnt_stress.dat

## Ensure all forces affecting the top and bottom carbon groups are constant. Because initial velocity is zero, this ensures they remain immobile during the simulation
fix carbon_top_force carbon_top setforce 0 0 0
fix carbon_bottom_force carbon_bottom setforce 0 0 0

## Apply a constant velocity of 0.00005 Å/fs in the z-direction to the top carbon group, simulating a compressive force
## Apply a constant velocity of -0.00005 Å/fs in the z-direction to the bottom carbon group, simulating a stretching force
## Run deformation simulation of 200,000 timesteps
## Because we have previously set all forces affecting the top and bottom carbon groups as constant, this imposes a constant velocity deformation of 2*0.00005 A/fs = 0.0001 A/fs = 10 m/s
velocity carbon_top set 0 0 0.00005
velocity carbon_bottom set 0 0 -0.00005
run 200000
Generated 0 of 0 mixed pair_coeff terms from geometric mixing rule
Step          Temp          E_pair         E_mol          TotEng         Press
5000   312.66371      526.08332      2661.7432      3820.6485     -61.491438
Averages over the last 1001 of 2001 rows, steps 105000 to 205000:
Temp E_pair E_mol TotEng Press
299.649 688.797 31920.9 33216.1 -3570.86
Loop time of 216.205 on 1 procs for 200000 steps with 700 atoms
