LAMMPS (7 Feb 2024 - Update 1)
# Molecular Dynamics - Deformation of Carbon Nanotube with Unbreakable Bonds

# 1) Initialization
## Define simulation temperature, T=300K
variable T equal 300

units real
atom_style molecular
boundary f f f
pair_style lj/cut 14

bond_style harmonic
angle_style harmonic
dihedral_style opls
improper_style harmonic

special_bonds lj 0.0 0.0 0.5

# 2) System definition
## Import VMD generated initial carbon nanotube topography
read_data inert_gas_cnt_molecular.data
Reading data file ...
  orthogonal box = (-40 -40 -12.130411) to (40 40 67.869589)
  reading atoms ...
  700 atoms
  scanning bonds ...
  scanning angles ...
  scanning dihedrals ...
  scanning impropers ...
  reading bonds ...
  1035 bonds
  reading angles ...
  2040 angles
  reading dihedrals ...
  4030 dihedrals
  reading impropers ...
  670 impropers
Finding 1-2 1-3 1-4 neighbors ...
     3 = max # of 1-2 neighbors
     6 = max # of 1-3 neighbors
    18 = max # of 1-4 neighbors
    18 = max # of special neighbors

# 3) Simulation settings
## Import OPLS-AA Force Field Bonded & Non-Bonded Potentials
include opls-aa.lammps
## Bonded & Non-Bonded Potentials for C and Ar. Parameters Taken from OPLS-AA (Optimised Potentials for Liquid Simulations-All-Atom) force field
pair_coeff 1 1 0.066 3.4
pair_coeff 2 2 0.232 3.3952
bond_coeff 1 469 1.4
angle_coeff 1 63 120
dihedral_coeff 1 0 7.25 0 0
improper_coeff 1 5 180

## Group type 1 atoms (C atoms that make up CNT) and type 2 atoms (Ar atoms)
## Calculate the negative of the x, y & z centre of mass (cm) components of the carbon_atoms group ## Recenter the carbon nanotube at the origin (0, 0, 0) by displacing them by the calculated center of mass variables
group carbon_atoms type 1
700 atoms in group carbon_atoms
group argon_atoms type 2
0 atoms in group argon_atoms
variable carbon_xcm equal -1*xcm(carbon_atoms,x)
variable carbon_ycm equal -1*xcm(carbon_atoms,y)
variable carbon_zcm equal -1*xcm(carbon_atoms,z)
displace_atoms carbon_atoms move 8.45130634422529e-18 1.0914862143567e-15 -27.8695884500003
Displacing atoms ...

## Center the simulation box about the origin (0, 0, 0) by altering dimensions to be from -40 to 40 in x, y & z directions
change_box all x final -100 100 y final -100 100 z final -100 100
Changing box ...
  orthogonal box = (-100 -40 -12.130411) to (100 40 67.869589)
  orthogonal box = (-100 -100 -12.130411) to (100 100 67.869589)
  orthogonal box = (-100 -100 -100) to (100 100 100)

# 4) Visualization
## Define region inside carbon nanotube
variable zmax equal bound(carbon_atoms,zmax)
variable zmin equal bound(carbon_atoms,zmin)
region inside_CNT cylinder z 0 0 2.5 -27.8695884500003 27.8695895499997
create_atoms 2 random 40 323485 inside_CNT overlap 1.8 maxtry 50
Created 40 atoms

# 5) Run

## Run energy minimzation and reset timestep
minimize 1.0e-4 1.0e-6 1000 10000
Generated 1 of 1 mixed pair_coeff terms from geometric mixing rule
Step          Temp          E_pair         E_mol          TotEng         Press
0   0              5576.7029      2184.6086      7761.3114      146.96009
Loop time of 0.309421 on 1 procs for 99 steps with 740 atoms

Minimization stats:
  Stopping criterion = energy tolerance
  Energy initial, next-to-last, final =
  Force two-norm initial, final = 14312.991 21.959759
  Force max component initial, final = 5600.1318 2.4030013
  Final line search alpha, max atom move = 0.0033837667 0.0081311957
  Iterations, force evaluations = 99 185

reset_timestep 0

## Initialize velocities of all atoms at T (300 K) with no overall translational momentum (`mom yes``) or rotational momentum (`rot yes`)
## As a result of `mom yes` and `rot yes`, the systems net movement and rotation is null
velocity all create 300 48455 mom yes rot yes

## Apply the NVE ensemble to the system
fix nve_ensemble all nve

## Calculate the temperature of the carbon_atoms
compute carbon_temp carbon_atoms temp

fix carbon_berendsen_thermostat carbon_atoms temp/berendsen 300 300 100

## Modify Berendsen thermostat fix to use the temperature calculated by carbon_middle_temp compute command
fix_modify carbon_berendsen_thermostat temp carbon_temp

## Calculate the temperature of the argon_atoms
compute argon_temp argon_atoms temp

fix argon_berendsen_thermostat argon_atoms temp/berendsen 300 300 100

## Modify Berendsen thermostat fix to use the temperature calculated by carbon_middle_temp compute command
fix_modify argon_berendsen_thermostat temp argon_temp

## Calculate the distance between the center of mass of the top and bottom carbon groups in the z-direction
variable carbon_top_bottom_cm_distance equal xcm(carbon_top,z)-xcm(carbon_bottom,z)

fix spring carbon_atoms spring/self 5
timestep 1.0
dump dump_all_atoms_per_100_timestep all atom 100 trajectory-output-data/dump_all_atoms_per_100_timestep.lammpstrj
thermo 1000
run 8000
Generated 1 of 1 mixed pair_coeff terms from geometric mixing rule
Step          Temp          E_pair         E_mol          TotEng         Press
0   300            369.28568      2062.3063      3092.4375      4.8912371
Averages over the last 5 of 9 rows, steps 4000 to 8000:
Temp E_pair E_mol TotEng Press
294.573 411.653 2658.95 3719.49 -0.165976
Loop time of 9.31089 on 1 procs for 8000 steps with 740 atoms
