LAMMPS (7 Feb 2024 - Development - patch_7Feb2024_update1-413-gde8b1b49a6)
# Molecular Dynamics - Input Script for H2O Solvated PEG

# 1) Initialization
units real
atom_style full
bond_style harmonic
angle_style harmonic
dihedral_style harmonic
pair_style lj/cut/coul/long 12
kspace_style pppm 1e-5
special_bonds lj 0.0 0.0 0.5 coul 0.0 0.0 1.0 angle yes dihedral yes

# 2) System Definition
read_data ../pure-H2O/H2O.data extra/bond/per/atom 2 extra/angle/per/atom  5 extra/dihedral/per/atom 9
Reading data file ...
  orthogonal box = (-17.590676 -17.590676 -17.590676) to (87.953379 17.590676 17.590676)
  reading atoms ...
  9450 atoms
  reading velocities ...
  9450 velocities
  scanning bonds ...
  scanning angles ...
  reading bonds ...
  6300 bonds
  reading angles ...
  3150 angles
Finding 1-2 1-3 1-4 neighbors ...
     2 = max # of 1-2 neighbors
     1 = max # of 1-3 neighbors
     1 = max # of 1-4 neighbors
     2 = max # of special neighbors
read_data ../single-PEG/PEG.data add append shift 25 0 0
Reading data file ...
  orthogonal box = (-17.590676 -17.590676 -17.590676) to (87.953379 17.590676 17.590676)
  reading atoms ...
  101 atoms
  reading velocities ...
  101 velocities
  scanning bonds ...
  scanning angles ...
  scanning dihedrals ...
  reading bonds ...
  100 bonds
  reading angles ...
  183 angles
  reading dihedrals ...
  210 dihedrals
Finding 1-2 1-3 1-4 neighbors ...
     4 = max # of 1-2 neighbors
     6 = max # of 1-3 neighbors
    12 = max # of 1-4 neighbors
    14 = max # of special neighbors

# 3) Simulation Settings
include ../H2O-PEG-parameters.lammps
mass 1 15.9994 # PEG O
mass 2 12.011 # PEG C
mass 3 1.008 # PEG H
mass 4 1.008 # PEG H
mass 5 12.011 # PEG C
mass 6 15.9994 # PEG O
mass 7 15.9994 # PEG O
mass 8 15.9994 # H2O O
mass 9 1.008 # H2O H

pair_coeff 1 1 0.25265643 2.8491607
pair_coeff 2 2 0.06630155 3.5811794
pair_coeff 3 3 0.028293679 2.373408
pair_coeff 4 4 0.0 0.0
pair_coeff 5 5 0.24501823 2.8114421
pair_coeff 6 6 0.11949714 3.1000042
pair_coeff 7 7 0.11949714 3.1000042
pair_coeff 8 8 0.119431704 3.400251
pair_coeff 9 9 0.0 0.0

bond_coeff 1 400.05737 1.4
bond_coeff 2 400.0343 1.53
bond_coeff 3 155.35373 1.42
bond_coeff 4 143.40344 1.11
bond_coeff 5 621.4149 0.938
bond_coeff 6 442.1606 0.972

angle_coeff 1 47.555878 103.0
angle_coeff 2 50.17089 108.0
angle_coeff 3 30.173132 109.5
angle_coeff 4 47.69405 109.5
angle_coeff 5 55.12715 109.5
angle_coeff 6 47.634956 109.6
angle_coeff 7 55.113907 111.0
angle_coeff 8 59.79372 115.0
angle_coeff 9 52.476738 107.57
angle_coeff 10 54.956596 107.6
angle_coeff 11 54.993103 110.3
angle_coeff 12 55.0234 111.4
angle_coeff 13 30.173132 110.0
angle_coeff 14 509.99622 112.0
angle_coeff 15 47.555878 103.0

dihedral_coeff 1 0.30114722 1 3
dihedral_coeff 2 1.414914 1 3
dihedral_coeff 3 0.0 1 1

group H2O type 8 9
9450 atoms in group H2O
group PEG type 1 2 3 4 5 6 7
101 atoms in group PEG

delete_atoms overlap 2.0 H2O PEG mol yes
System init for delete_atoms ...
PPPM initialization ...
  G vector (1/distance) = 0.24809842
  grid = 60 25 25
  stencil order = 5
  estimated absolute RMS force accuracy = 0.0035009865
  estimated relative force accuracy = 1.0543117e-05
  3d grid and FFT values/proc = 68608 37500
Generated 36 of 36 mixed pair_coeff terms from geometric mixing rule
Deleted 111 atoms, new total = 9440
Deleted 74 bonds, new total = 6326
Deleted 37 angles, new total = 3296
Deleted 0 dihedrals, new total = 210

# 4) Run
fix npt_ensemble all npt temp 300 300 100 iso 1 1 1000
timestep 1.0

dump dump_all_atoms_per_100_timestep all atom 100 trajectory-output-data/dump_all_atoms_per_100_timestep.lammpstrj
thermo 100

variable solvated_PEG_temp equal temp
variable solvated_PEG_vol equal vol

fix solvated_PEG_ave_temp all ave/time 10 10 100 v_solvated_PEG_temp file ave-time-output-data/ave_solvated_PEG_temperature.dat
fix solvated_PEG_ave_vol all ave/time 10 10 100 v_solvated_PEG_vol file ave-time-output-data/ave_solvated_PEG_volume.dat

variable solvated_PEG_enthalpy equal enthalpy
fix solvated_PEG_ave_enthalpy all ave/time 10 10 100 v_solvated_PEG_enthalpy file ave-time-output-data/ave_solvated_PEG_enthalpy.dat

run 10000
PPPM initialization ...
  G vector (1/distance) = 0.24809817
  grid = 60 25 25
  stencil order = 5
  estimated absolute RMS force accuracy = 0.0034801822
  estimated relative force accuracy = 1.0480465e-05
  3d grid and FFT values/proc = 68608 37500
Generated 36 of 36 mixed pair_coeff terms from geometric mixing rule
Step          Temp          E_pair         E_mol          TotEng         Press          Volume
0   301.24888     -23257.591      4292.0726     -10489.62       310.96713      130634.78
Averages over the last 51 of 101 rows, steps 5000 to 10000:
Temp E_pair E_mol TotEng Press Volume
299.604 -23585.2 4172.16 -10983.4 182.203 127689
Loop time of 622.77 on 1 procs for 10000 steps with 9440 atoms

write_data solvated_PEG.data
System init for write_data ...
PPPM initialization ...
  G vector (1/distance) = 0.2486257
  grid = 60 25 25
  stencil order = 5
  estimated absolute RMS force accuracy = 0.0033937702
  estimated relative force accuracy = 1.0220238e-05
  3d grid and FFT values/proc = 68608 37500
Generated 36 of 36 mixed pair_coeff terms from geometric mixing rule
