# PART B - MOLECULAR DYNAMICS

# 1) Initialization
units lj
dimension 3
atom_style molecular
bond_style harmonic
pair_style lj/cut 2.5
boundary p p p

# 2) System definition
read_data ../../energy-minimization/data/raw/topology/minimized_coordinate.data
Reading data file ...
  orthogonal box = (-20 -20 -20) to (20 20 20)
  reading atoms ...
  1540 atoms
  reading velocities ...
  1540 velocities
  scanning bonds ...
  reading bonds ...
  20 bonds
Finding 1-2 1-3 1-4 neighbors ...
     1 = max # of 1-2 neighbors
     0 = max # of 1-3 neighbors
     0 = max # of 1-4 neighbors
     1 = max # of special neighbors

# 3) Visualization
thermo 1000
dump dump_all_atoms_per_100_timestep all atom 1000 ../data/raw/trajectory/dump_all_atoms_per_100_timestep.md.lammpstrj

# 4) Run
fix fix_nve_ensemble all nve
fix fix_langevin_thermostat all langevin 1 1 0.1 94728

run 500000
Generated 0 of 1 mixed pair_coeff terms from geometric mixing rule
Step          Temp          E_pair         E_mol          TotEng         Press
0   0             -0.95728549     5.124847e-07  -0.95728497    -0.00012810298
Averages over the last 251 of 501 rows, steps 250000 to 500000:
Temp E_pair E_mol TotEng Press
1.00225 -0.211969 0.00683988 1.29727 0.0216802
Loop time of 54.5849 on 1 procs for 500000 steps with 1540 atoms
