LAMMPS (7 Feb 2024 - Update 1)
# Molecular Dynamics - Replication of Carbon Nanotube with Unbreakable Bonds Along x & y-direction With Periodic Boundary Conditions

# 1) Initialization
variable T equal 300

## Change boundary conditions to periodic in the x and y directions so that we can extend infinitely
units real
atom_style molecular
boundary p p f
pair_style lj/cut 14

bond_style harmonic
angle_style harmonic
dihedral_style opls
improper_style harmonic
special_bonds lj 0.0 0.0 0.5

# 2) System definition
read_data ../../cnt-unbreakable-bonds/cnt_molecular.data
Reading data file ...
  orthogonal box = (-40 -40 -12.130411) to (40 40 67.869589)
  reading atoms ...
  700 atoms
  scanning bonds ...
  scanning angles ...
  scanning dihedrals ...
  scanning impropers ...
  reading bonds ...
  1035 bonds
  reading angles ...
  2040 angles
  reading dihedrals ...
  4030 dihedrals
  reading impropers ...
  670 impropers
Finding 1-2 1-3 1-4 neighbors ...
     3 = max # of 1-2 neighbors
     6 = max # of 1-3 neighbors
    18 = max # of 1-4 neighbors
    18 = max # of special neighbors

# 3) Simulation settings
include ../../cnt-unbreakable-bonds/opls-aa.lammps
## Bonded & Non-Bonded Potentials. Parameters Taken from OPLS-AA (Optimised Potentials for Liquid Simulations-All-Atom) force field
pair_coeff 1 1 0.066 3.4
bond_coeff 1 469 1.4
angle_coeff 1 63 120
dihedral_coeff 1 0 7.25 0 0
improper_coeff 1 5 180

## Re-size the simulation box to extend from -7 Å to 7 Å in both x and y directions
## Replicate CNTs by 3 in x-direction and 3 in y-direction to give 9 in unit cell
## Change box from orthogonal to triclinic to allow expansions & compressions (deformations) that are not parallel to the primary x, y or z coordinate axes
change_box all x final -40 40 y final -40 40
Changing box ...
  orthogonal box = (-40 -40 -12.130411) to (40 40 67.869589)
  orthogonal box = (-40 -40 -12.130411) to (40 40 67.869589)
replicate 3 3 1
Replication is creating a 3x3x1 = 9 times larger system...
  orthogonal box = (-40 -40 -12.130411) to (200 200 67.869589)
  6300 atoms
  9315 bonds
  18360 angles
  36270 dihedrals
  6030 impropers
Finding 1-2 1-3 1-4 neighbors ...
     3 = max # of 1-2 neighbors
     6 = max # of 1-3 neighbors
    18 = max # of 1-4 neighbors
    18 = max # of special neighbors
  replicate CPU = 0.006 seconds
change_box all triclinic
Changing box ...
  triclinic box = (-40 -40 -12.130411) to (200 200 67.869589) with tilt (0 0 0)

## Create region center_block that extends infinitely in the x and z directions and from y=7 to y=21 in the y direction
region center_block block INF INF 7 21 INF INF
group CNT_center region center_block
0 atoms in group CNT_center
displace_atoms CNT_center move 7 0 0
Displacing atoms ...

# 5) Run
velocity all create 300 48455 mom yes rot yes

## Apply the NPT (constant Number, Pressure, Temperature) ensemble to the system, controlling temperature & scaling the x and y directions
fix npt_ensemble all npt temp 300 300 100 x 1 1 1000 y 1 1 1000

thermo 100
timestep 1.0
run 5000
Generated 0 of 0 mixed pair_coeff terms from geometric mixing rule
Step          Temp          E_pair         E_mol          TotEng         Press          Volume
0   300            4134.0853      19661.477      29428.399     -557.60943      4608000
Averages over the last 26 of 51 rows, steps 2500 to 5000:
Temp E_pair E_mol TotEng Press Volume
299.583 4988.62 24017.4 34631 8.06263 4.47906e+06
Loop time of 52.1966 on 1 procs for 5000 steps with 6300 atoms

## Stop the NPT ensemble & reset timestep
unfix npt_ensemble
reset_timestep 0

dump dump_all_atoms_per_100_timestep all atom 500 trajectory-output-data/dump_all_atoms_per_500_timestep.lammpstrj

## Switch to an NVT (constant Number, Volume, Temperature) ensemble to control temperature
fix nvt_ensemble all nvt temp 300 300 100

# Create a deformation fix that applies to all atoms, applying it every timestep (1) in the x & y directions, with an erate (engineering strain rate) of 5 * 10^-5 per timestep
fix deformation all deform 1 xy erate 5e-5

run 2000
Generated 0 of 0 mixed pair_coeff terms from geometric mixing rule
Step          Temp          E_pair         E_mol          TotEng         Press          Volume
0   296.01034      4750.9329      24372.822      34681.681     -233.23879      4417458.4
Averages over the last 11 of 21 rows, steps 1000 to 2000:
Temp E_pair E_mol TotEng Press Volume
300.117 4976.63 24014.8 34626.4 -4.50243 4.41746e+06
Loop time of 20.7593 on 1 procs for 2000 steps with 6300 atoms
