LAMMPS (7 Feb 2024 - Update 1)
# Molecular Dynamics - Input Script for PEG Solvated in H2O

# 1) Initialization
units real
atom_style full
bond_style harmonic
angle_style harmonic
dihedral_style harmonic
pair_style lj/cut/coul/long 12
kspace_style pppm 1e-5
special_bonds lj 0.0 0.0 0.5 coul 0.0 0.0 1.0 angle yes dihedral yes

# 2) System Definition
read_data ../pure-H2O/H2O.data extra/bond/per/atom 2 extra/angle/per/atom  5 extra/dihedral/per/atom 9
Reading data file ...
  orthogonal box = (-12.104184 -12.104184 -12.104184) to (60.520922 12.104184 12.104184)
  reading atoms ...
  3150 atoms
  reading velocities ...
  3150 velocities
  scanning bonds ...
  scanning angles ...
  reading bonds ...
  2100 bonds
  reading angles ...
  1050 angles
Finding 1-2 1-3 1-4 neighbors ...
     2 = max # of 1-2 neighbors
     1 = max # of 1-3 neighbors
     1 = max # of 1-4 neighbors
     2 = max # of special neighbors
read_data ../single-PEG/PEG.data add append shift 25 0 0
Reading data file ...
  orthogonal box = (-12.104184 -12.104184 -12.104184) to (60.520922 12.104184 12.104184)
  reading atoms ...
  101 atoms
  reading velocities ...
  101 velocities
  scanning bonds ...
  scanning angles ...
  scanning dihedrals ...
  reading bonds ...
  100 bonds
  reading angles ...
  183 angles
  reading dihedrals ...
  210 dihedrals
Finding 1-2 1-3 1-4 neighbors ...
     4 = max # of 1-2 neighbors
     6 = max # of 1-3 neighbors
    12 = max # of 1-4 neighbors
    14 = max # of special neighbors

# 3) Simulation Settings
include ../parameters.lammps
mass 1 15.9994 # PEG O
mass 2 12.011 # PEG C
mass 3 1.008 # PEG H
mass 4 1.008 # PEG H
mass 5 12.011 # PEG C
mass 6 15.9994 # PEG O
mass 7 15.9994 # PEG O
mass 8 15.9994 # H2O O
mass 9 1.008 # H2O H

pair_coeff 1 1 0.25265643 2.8491607
pair_coeff 2 2 0.06630155 3.5811794
pair_coeff 3 3 0.028293679 2.373408
pair_coeff 4 4 0.0 0.0
pair_coeff 5 5 0.24501823 2.8114421
pair_coeff 6 6 0.11949714 3.1000042
pair_coeff 7 7 0.11949714 3.1000042
pair_coeff 8 8 0.119431704 3.400251
pair_coeff 9 9 0.0 0.0

bond_coeff 1 400.05737 1.4
bond_coeff 2 400.0343 1.53
bond_coeff 3 155.35373 1.42
bond_coeff 4 143.40344 1.11
bond_coeff 5 621.4149 0.938
bond_coeff 6 442.1606 0.972

angle_coeff 1 47.555878 103.0
angle_coeff 2 50.17089 108.0
angle_coeff 3 30.173132 109.5
angle_coeff 4 47.69405 109.5
angle_coeff 5 55.12715 109.5
angle_coeff 6 47.634956 109.6
angle_coeff 7 55.113907 111.0
angle_coeff 8 59.79372 115.0
angle_coeff 9 52.476738 107.57
angle_coeff 10 54.956596 107.6
angle_coeff 11 54.993103 110.3
angle_coeff 12 55.0234 111.4
angle_coeff 13 30.173132 110.0
angle_coeff 14 509.99622 112.0
angle_coeff 15 47.555878 103.0

dihedral_coeff 1 0.30114722 1 3
dihedral_coeff 2 1.414914 1 3
dihedral_coeff 3 0.0 1 1

group H2O type 8 9
3150 atoms in group H2O
group PEG type 1 2 3 4 5 6 7
101 atoms in group PEG

delete_atoms overlap 2.0 H2O PEG mol yes
System init for delete_atoms ...
PPPM initialization ...
  G vector (1/distance) = 0.24924306
  grid = 40 18 18
  stencil order = 5
  estimated absolute RMS force accuracy = 0.00323044
  estimated relative force accuracy = 9.7283742e-06
  3d grid and FFT values/proc = 29375 12960
Generated 36 of 36 mixed pair_coeff terms from geometric mixing rule
Deleted 126 atoms, new total = 3125
Deleted 84 bonds, new total = 2116
Deleted 42 angles, new total = 1191
Deleted 0 dihedrals, new total = 210

# 4) Run
fix npt_ensemble all npt temp 300 300 100 iso 1 1 1000
timestep 1.0

dump dump_all_atoms_per_100_timestep all atom 100 trajectory-output-data/dump_all_atoms_per_100_timestep.lammpstrj
thermo 100

variable solvated_PEG_temp equal temp
variable solvated_PEG_vol equal vol

fix solvated_PEG_ave_temp all ave/time 10 10 100 v_solvated_PEG_temp file ave-time-output-data/ave_solvated_PEG_temperature.dat
fix solvated_PEG_ave_vol all ave/time 10 10 100 v_solvated_PEG_vol file ave-time-output-data/ave_solvated_PEG_volume.dat

variable solvated_PEG_enthalpy equal enthalpy
fix solvated_PEG_ave_enthalpy all ave/time 10 10 100 v_solvated_PEG_enthalpy file ave-time-output-data/ave_solvated_PEG_enthalpy.dat

run 10000
PPPM initialization ...
  G vector (1/distance) = 0.24924115
  grid = 40 18 18
  stencil order = 5
  estimated absolute RMS force accuracy = 0.0031634251
  estimated relative force accuracy = 9.5265608e-06
  3d grid and FFT values/proc = 29375 12960
Generated 36 of 36 mixed pair_coeff terms from geometric mixing rule
Step          Temp          E_pair         E_mol          TotEng         Press          Volume
0   288.14742     -7421.8674      1376.973      -3361.651       37.366305      42561.589
Averages over the last 51 of 101 rows, steps 5000 to 10000:
Temp E_pair E_mol TotEng Press Volume
300.809 -7634.54 1415.66 -3417.73 125.416 42066.9
Loop time of 176.023 on 1 procs for 10000 steps with 3125 atoms

write_data solvated_PEG.data
System init for write_data ...
PPPM initialization ...
  G vector (1/distance) = 0.24952423
  grid = 40 18 18
  stencil order = 5
  estimated absolute RMS force accuracy = 0.0031205121
  estimated relative force accuracy = 9.3973294e-06
  3d grid and FFT values/proc = 29375 12960
Generated 36 of 36 mixed pair_coeff terms from geometric mixing rule
