# Molecular Dynamics - Input Script for Evaluation of H2O Solvated PEG Deformation

# 1) Initialization
units real
atom_style full
bond_style harmonic
angle_style harmonic
dihedral_style harmonic
pair_style lj/cut/coul/long 12
kspace_style pppm 1e-5
special_bonds lj 0.0 0.0 0.5 coul 0.0 0.0 1.0 angle yes dihedral yes
variable force_0 equal 5

# 2) System Definition
read_data ../data/raw/topology/solvated_PEG.data
Reading data file ...
  orthogonal box = (-31.663216 -11.265857 -11.265857) to (31.663216 11.265857 11.265857)
  reading atoms ...
  3077 atoms
  reading velocities ...
  3077 velocities
  scanning bonds ...
  scanning angles ...
  scanning dihedrals ...
  reading bonds ...
  2084 bonds
  reading angles ...
  1175 angles
  reading dihedrals ...
  210 dihedrals
Finding 1-2 1-3 1-4 neighbors ...
     4 = max # of 1-2 neighbors
     6 = max # of 1-3 neighbors
    12 = max # of 1-4 neighbors
    14 = max # of special neighbors

# 3) Simulation Settings
include ../data/parameters/H2O-PEG-parameters.lammps
# LAMMPS input script by Simon Gravelle
# This input is part of a tutorial from https://lammpstutorials.github.io
# Last tested using the 2Aug2023 stable LAMMPS version
# This file was released under the GNU general public license v3.0

mass 1 15.9994 # PEG O (GROMOS 54A7)
mass 2 12.011 # PEG C (GROMOS 54A7)
mass 3 1.008 # PEG H (GROMOS 54A7)
mass 4 1.008 # PEG H (GROMOS 54A7)
mass 5 12.011 # PEG C (GROMOS 54A7)
mass 6 15.9994 # PEG O (GROMOS 54A7)
mass 7 15.9994 # PEG O (GROMOS 54A7)
mass 8 15.9994 # H2O O (SPC/Fw)
mass 9 1.008 # H2O H (SPC/Fw)

pair_coeff 1 1 0.2526 2.8492 # PEG O (GROMOS 54A7)
pair_coeff 2 2 0.0663 3.5812 # PEG C (GROMOS 54A7)
pair_coeff 3 3 0.0283 2.3734 # PEG H (GROMOS 54A7)
pair_coeff 4 4 0.0 0.0 # PEG H (GROMOS 54A7)
pair_coeff 5 5 0.2450 2.8114 # PEG C (GROMOS 54A7)
pair_coeff 6 6 0.1195 3.1000 # PEG O (GROMOS 54A7)
pair_coeff 7 7 0.1195 3.1000 # PEG O (GROMOS 54A7)
pair_coeff 8 8 0.155 3.165  # H2O O (SPC/Fw)
pair_coeff 9 9 0.0 0.0 # H2O H (SPC/Fw)

bond_coeff 1 1109.2926 1.12
bond_coeff 2 399.7916 1.43
bond_coeff 3 299.8440 1.52
bond_coeff 4 400.0343 1.53
bond_coeff 5 310.7075 1.41
bond_coeff 6 179.2543 0.971
bond_coeff 7 1059.162 1.012 # H2O O-H (SPC/Fw)

angle_coeff 1 47.6940 109.5
angle_coeff 2 55.1271 109.5
angle_coeff 3 47.6350 109.6
angle_coeff 4 55.1139 111.0
angle_coeff 5 54.9931 110.3
angle_coeff 6 180.4602 109.0
angle_coeff 7 30.1731 110.0
angle_coeff 8 75.90 113.24 # H2O H-O-H (SPC/Fw)

dihedral_coeff 1 0.3011 1 3
dihedral_coeff 2 1.4149 1 3
dihedral_coeff 3 0.2390 -1 3
dihedral_coeff 4 0.0 1 1

group H2O type 8 9
2976 atoms in group H2O
group PEG type 1 2 3 4 5 6 7
101 atoms in group PEG

group pull_oxygen_6 type 6
1 atoms in group pull_oxygen_6
group pull_oxygen_7 type 7
1 atoms in group pull_oxygen_7

# 4) Run
dump dump_all_atoms_per_1000_timestep all atom 1000 ../data/raw/trajectory/dump_all_atoms_per_1000_timestep.lammpstrj
thermo 100

fix nvt_ensemble all nvt temp 300 300 100
timestep 1.0

compute dihedral_angles all dihedral/local phi
fix ave_dihedral_histograms all ave/histo 10 2000 30000 0 180 500 c_dihedral_angles     file ../data/raw/dihedral-vs-time/initial_dihedral.histo mode vector

run 30000
PPPM initialization ...
  G vector (1/distance) = 0.25218253
  grid = 36 18 18
  stencil order = 5
  estimated absolute RMS force accuracy = 0.0028762521
  estimated relative force accuracy = 8.6617476e-06
  3d grid and FFT values/proc = 26875 11664
Generated 36 of 36 mixed pair_coeff terms from geometric mixing rule
Step          Temp          E_pair         E_mol          TotEng         Press
0   295.20501     -9838.6815      1028.2575     -6103.6976     -173.18132
Averages over the last 151 of 301 rows, steps 15000 to 30000:
Temp E_pair E_mol TotEng Press
300.268 -9973.06 1035.92 -6183.99 55.3792
Loop time of 568.77 on 1 procs for 30000 steps with 3077 atoms

unfix ave_dihedral_histograms

variable peg_com_x equal xcm(PEG,x)
variable peg_com_y equal xcm(PEG,y)
variable peg_com_z equal xcm(PEG,z)
fix recenter_PEG PEG recenter 4.20828237650428 -5.7012437138476 -5.21617688334552

fix oxygen_6_force pull_oxygen_6 addforce 5 0 0
fix oxygen_7_force pull_oxygen_7 addforce -5 0 0

fix ave_dihedral_histograms all ave/histo 10 2000 30000 0 180 500 c_dihedral_angles     file ../data/raw/dihedral-vs-time/final_dihedral.histo mode vector

run 30000
PPPM initialization ...
  G vector (1/distance) = 0.25218253
  grid = 36 18 18
  stencil order = 5
  estimated absolute RMS force accuracy = 0.0028762521
  estimated relative force accuracy = 8.6617476e-06
  3d grid and FFT values/proc = 26875 11664
Generated 36 of 36 mixed pair_coeff terms from geometric mixing rule
Step          Temp          E_pair         E_mol          TotEng         Press
30000   297.59616     -9995.5208      1072.0736     -6194.7964     -59.034563
Averages over the last 151 of 301 rows, steps 45000 to 60000:
Temp E_pair E_mol TotEng Press
299.685 -10078.7 1021.82 -6309.08 -280.68
Loop time of 577.32 on 1 procs for 30000 steps with 3077 atoms
