LAMMPS (7 Feb 2024 - Update 1)
# Molecular Dynamics - Input Script for Pure H2O

# 1) Initialization
units real
atom_style full
bond_style harmonic
angle_style harmonic
dihedral_style harmonic
pair_style lj/cut/coul/long 12
kspace_style pppm 1e-5
special_bonds lj 0.0 0.0 0.5 coul 0.0 0.0 1.0 angle yes

# 2) System Definition
region box block -15 15 -15 15 -15 15
create_box 9 box bond/types 6 angle/types 15 dihedral/types 3 extra/bond/per/atom 2 extra/angle/per/atom 1 extra/special/per/atom 2
Created orthogonal box = (-15 -15 -15) to (15 15 15)

# 3) Simulation Settings
include ../parameters.lammps
mass 1 15.9994 # PEG O
mass 2 12.011 # PEG C
mass 3 1.008 # PEG H
mass 4 1.008 # PEG H
mass 5 12.011 # PEG C
mass 6 15.9994 # PEG O
mass 7 15.9994 # PEG O
mass 8 15.9994 # H2O O
mass 9 1.008 # H2O H

pair_coeff 1 1 0.25265643 2.8491607
pair_coeff 2 2 0.06630155 3.5811794
pair_coeff 3 3 0.028293679 2.373408
pair_coeff 4 4 0.0 0.0
pair_coeff 5 5 0.24501823 2.8114421
pair_coeff 6 6 0.11949714 3.1000042
pair_coeff 7 7 0.11949714 3.1000042
pair_coeff 8 8 0.119431704 3.400251
pair_coeff 9 9 0.0 0.0

bond_coeff 1 400.05737 1.4
bond_coeff 2 400.0343 1.53
bond_coeff 3 155.35373 1.42
bond_coeff 4 143.40344 1.11
bond_coeff 5 621.4149 0.938
bond_coeff 6 442.1606 0.972

angle_coeff 1 47.555878 103.0
angle_coeff 2 50.17089 108.0
angle_coeff 3 30.173132 109.5
angle_coeff 4 47.69405 109.5
angle_coeff 5 55.12715 109.5
angle_coeff 6 47.634956 109.6
angle_coeff 7 55.113907 111.0
angle_coeff 8 59.79372 115.0
angle_coeff 9 52.476738 107.57
angle_coeff 10 54.956596 107.6
angle_coeff 11 54.993103 110.3
angle_coeff 12 55.0234 111.4
angle_coeff 13 30.173132 110.0
angle_coeff 14 509.99622 112.0
angle_coeff 15 47.555878 103.0

dihedral_coeff 1 0.30114722 1 3
dihedral_coeff 2 1.414914 1 3
dihedral_coeff 3 0.0 1 1

molecule H2O_molecule H2O_molecular.data
Read molecule template H2O_molecule:
# H2O Molecular Data File for LAMMPS
  1 molecules
  0 fragments
  3 atoms with max type 9
  2 bonds with max type 6
  1 angles with max type 15
  0 dihedrals with max type 0
  0 impropers with max type 0
create_atoms 0 random 350 45615 NULL mol H2O_molecule 14756 overlap 1 maxtry 50
Created 1050 atoms
group H2O type 8 9
1050 atoms in group H2O

minimize 1.0e-4 1.0e-6 100 1000
PPPM initialization ...
  G vector (1/distance) = 0.24900018
  grid = 20 20 20
  stencil order = 5
  estimated absolute RMS force accuracy = 0.0024186408
  estimated relative force accuracy = 7.2836648e-06
  3d grid and FFT values/proc = 19683 8000
Generated 36 of 36 mixed pair_coeff terms from geometric mixing rule
Step          Temp          E_pair         E_mol          TotEng         Press
0   0              15856.787      79.633604      15936.421      175169.47
Loop time of 0.681434 on 1 procs for 100 steps with 1050 atoms

Minimization stats:
  Stopping criterion = max iterations
  Energy initial, next-to-last, final =
  Force two-norm initial, final = 37387.899 51.164827
  Force max component initial, final = 15460.736 11.160978
  Final line search alpha, max atom move = 0.0053960298 0.060224969
  Iterations, force evaluations = 100 165

reset_timestep 0

# 4) Run
## Apply the NPT ensemble to all atoms
## Starting temp=300K, target temp=300k, temp dampening constant=100 fs
## Starting pressure=1 atm, target pressure=1 atm, pressure dampening constant=1000fs
## Applies isotopic pressure control (`iso`), meaning pressure will be controlled uniformly in all three dimensions (i.e. the simulation box will expand or contact equally in all directions)
fix npt_ensemble all npt temp 300 300 100 iso 1 1 1000

dump dump_all_atoms_per_100_timestep all atom 1000 trajectory-output-data/dump_all_atoms_per_1000_timestep.lammpstrj

variable H2O_temp equal temp
variable H2O_vol equal vol

fix ave_temp all ave/time 10 10 100 v_H2O_temp file ave_H2O_temperature.dat
fix ave_vol all ave/time 10 10 100 v_H2O_vol file ave_H2O_volume.dat

## Calculate number of molecules by counting number of atoms in group H2O, divided by 3
variable H2O_molecule_number equal count(H2O)/3

## Calculate H2O density by dividing number of H2O molecules by volume
variable H2O_density equal 350/v_H2O_vol

fix ave_density all ave/time 10 10 100 v_H2O_density file ave_H20_density.dat

thermo 100
timestep 1.0
run 50000
PPPM initialization ...
  G vector (1/distance) = 0.24900018
  grid = 20 20 20
  stencil order = 5
  estimated absolute RMS force accuracy = 0.0024186408
  estimated relative force accuracy = 7.2836648e-06
  3d grid and FFT values/proc = 19683 8000
Generated 36 of 36 mixed pair_coeff terms from geometric mixing rule
Step          Temp          E_pair         E_mol          TotEng         Press          Volume
0   0             -2624.3765      130.9977      -2493.3788     -1928.9419      27000
Averages over the last 251 of 501 rows, steps 25000 to 50000:
Temp E_pair E_mol TotEng Press Volume
300.859 -2599.03 428.352 -1229.93 222.122 14511.6
Loop time of 295.718 on 1 procs for 50000 steps with 1050 atoms

replicate 3 1 1
Replication is creating a 3x1x1 = 3 times larger system...
  orthogonal box = (-12.104184 -12.104184 -12.104184) to (60.520922 12.104184 12.104184)
  3150 atoms
  2100 bonds
  1050 angles
Finding 1-2 1-3 1-4 neighbors ...
     2 = max # of 1-2 neighbors
     1 = max # of 1-3 neighbors
     1 = max # of 1-4 neighbors
     5 = max # of special neighbors
  replicate CPU = 0.003 seconds

write_data H20.data
System init for write_data ...
PPPM initialization ...
  G vector (1/distance) = 0.24924421
  grid = 40 18 18
  stencil order = 5
  estimated absolute RMS force accuracy = 0.0032776491
  estimated relative force accuracy = 9.8705428e-06
  3d grid and FFT values/proc = 29375 12960
Generated 36 of 36 mixed pair_coeff terms from geometric mixing rule
