LAMMPS (7 Feb 2024 - Development - patch_7Feb2024_update1-413-gde8b1b49a6)
# Molecular Dynamics - Input Script for Pure H2O

# 1) Initialization
units real
atom_style full
bond_style harmonic
angle_style harmonic
dihedral_style harmonic
pair_style lj/cut/coul/long 12
kspace_style pppm 1e-5
special_bonds lj 0.0 0.0 0.5 coul 0.0 0.0 1.0 angle yes

# 2) System Definition
region box block -45 45 -15 15 -15 15
create_box 9 box bond/types 7 angle/types 8 dihedral/types 4 extra/bond/per/atom 3 extra/angle/per/atom 6 extra/dihedral/per/atom 10 extra/special/per/atom 14
Created orthogonal box = (-45 -15 -15) to (45 15 15)

# 3) Simulation Settings
include ../H2O-PEG-parameters.lammps
# LAMMPS input script by Simon Gravelle
# This input is part of a tutorial from https://lammpstutorials.github.io
# Last tested using the 2Aug2023 stable LAMMPS version
# This file was released under the GNU general public license v3.0

mass 1 15.9994 # PEG O (GROMOS 54A7)
mass 2 12.011 # PEG C (GROMOS 54A7)
mass 3 1.008 # PEG H (GROMOS 54A7)
mass 4 1.008 # PEG H (GROMOS 54A7)
mass 5 12.011 # PEG C (GROMOS 54A7)
mass 6 15.9994 # PEG O (GROMOS 54A7)
mass 7 15.9994 # PEG O (GROMOS 54A7)
mass 8 15.9994 # H2O O (SPC/Fw)
mass 9 1.008 # H2O H (SPC/Fw)

pair_coeff 1 1 0.2526 2.8492 # PEG O (GROMOS 54A7)
pair_coeff 2 2 0.0663 3.5812 # PEG C (GROMOS 54A7)
pair_coeff 3 3 0.0283 2.3734 # PEG H (GROMOS 54A7)
pair_coeff 4 4 0.0 0.0 # PEG H (GROMOS 54A7)
pair_coeff 5 5 0.2450 2.8114 # PEG C (GROMOS 54A7)
pair_coeff 6 6 0.1195 3.1000 # PEG O (GROMOS 54A7)
pair_coeff 7 7 0.1195 3.1000 # PEG O (GROMOS 54A7)
pair_coeff 8 8 0.155 3.165  # H2O O (SPC/Fw)
pair_coeff 9 9 0.0 0.0 # H2O H (SPC/Fw)

bond_coeff 1 1109.2926 1.12
bond_coeff 2 399.7916 1.43
bond_coeff 3 299.8440 1.52
bond_coeff 4 400.0343 1.53
bond_coeff 5 310.7075 1.41
bond_coeff 6 179.2543 0.971
bond_coeff 7 1059.162 1.012 # H2O O-H (SPC/Fw)

angle_coeff 1 47.6940 109.5
angle_coeff 2 55.1271 109.5
angle_coeff 3 47.6350 109.6
angle_coeff 4 55.1139 111.0
angle_coeff 5 54.9931 110.3
angle_coeff 6 180.4602 109.0
angle_coeff 7 30.1731 110.0
angle_coeff 8 75.90 113.24 # H2O H-O-H (SPC/Fw)

dihedral_coeff 1 0.3011 1 3
dihedral_coeff 2 1.4149 1 3
dihedral_coeff 3 0.2390 -1 3
dihedral_coeff 4 0.0 1 1

## Randomly create 1050 H2O molecules using the H2O molecular data from H2O_molecular.data. The `overlap 1.0` option ensures no atoms are placed exactly in the same position, which would cause the simulation to crash by rejecting the atom creation
## The `maxtry 50` option specifies if no suitable position is found after 50 attempts, a new atom is created elsewhere and the process starts again
## In some cases, depending on the system and the values of `overlap` and `maxtry`, LAMMPS may not create the desired number of molecules. It is therefore important to check the number of atoms created in the log file after starting the simulation
molecule H2O_molecule H2O_SPCFw.mol
Read molecule template H2O_molecule:
# LAMMPS H2O Molecular Data File
  1 molecules
  0 fragments
  3 atoms with max type 9
  2 bonds with max type 7
  1 angles with max type 8
  0 dihedrals with max type 0
  0 impropers with max type 0
create_atoms 0 random 1050 87910 NULL mol H2O_molecule 454756 overlap 1 maxtry 50
Created 3150 atoms
group H2O type 8 9
3150 atoms in group H2O

minimize 1.0e-4 1.0e-6 100 1000
PPPM initialization ...
  G vector (1/distance) = 0.24260915
  grid = 45 20 20
  stencil order = 5
  estimated absolute RMS force accuracy = 0.0037472136
  estimated relative force accuracy = 1.1284623e-05
  3d grid and FFT values/proc = 37179 18000
Generated 36 of 36 mixed pair_coeff terms from geometric mixing rule
Step          Temp          E_pair         E_mol          TotEng         Press
0   0              18103.161      0.40465931     18103.566      66126.308
Loop time of 2.66088 on 1 procs for 100 steps with 3150 atoms

Minimization stats:
  Stopping criterion = max iterations
  Energy initial, next-to-last, final =
  Force two-norm initial, final = 50808.698 313.96703
  Force max component initial, final = 25084.045 57.985073
  Final line search alpha, max atom move = 0.0010482206 0.06078115
  Iterations, force evaluations = 100 174

reset_timestep 0

# 4) Run
## Apply the NPT ensemble to all atoms
## Starting temp=300K, target temp=300k, temp dampening constant=100 fs
## Starting pressure=1 atm, target pressure=1 atm, pressure dampening constant=1000fs
## Applies isotopic pressure control (`iso`), meaning pressure will be controlled uniformly in all three dimensions (i.e. the simulation box will expand or contact equally in all directions)
fix npt_ensemble all npt temp 300 300 100 iso 1 1 1000

dump dump_all_atoms_per_1000_timestep all atom 1000 trajectory-output-data/dump_all_atoms_per_1000_timestep.lammpstrj

variable H2O_temp equal temp
variable H2O_vol equal vol

## Calculate the average H2O temperature and volume every 10 timesteps, calculate 10 times and output every 100 timesteps
fix H2O_ave_temp all ave/time 10 10 100 v_H2O_temp file ave-time-output-data/ave_H2O_temperature.dat
fix H2O_ave_vol all ave/time 10 10 100 v_H2O_vol file ave-time-output-data/ave_H2O_volume.dat

## Calculate number of molecules by counting number of atoms in group H2O, divided by 3
variable H2O_molecule_number equal count(H2O)/3

## Calculate H2O density by dividing number of H2O molecules by volume
## Note that we used underscore (`v_`) to get the variable value previously, but now are using dollar sign. With the dollar sign, the initial value of the variable is returned, whereas with underscore, the instantaneous value of the variable is returned
## Therefore, to probe the evolution of a variable over time, the underscore approach must be used
variable H2O_density equal 1050/v_H2O_vol

fix H2O_ave_density all ave/time 10 10 100 v_H2O_density file ave-time-output-data/ave_H20_density.dat

thermo 100
timestep 1.0
run 20000
PPPM initialization ...
  G vector (1/distance) = 0.24260915
  grid = 45 20 20
  stencil order = 5
  estimated absolute RMS force accuracy = 0.0037472136
  estimated relative force accuracy = 1.1284623e-05
  3d grid and FFT values/proc = 37179 18000
Generated 36 of 36 mixed pair_coeff terms from geometric mixing rule
Step          Temp          E_pair         E_mol          TotEng         Press          Volume
0   0             -8029.008       216.18554     -7812.8225     -1604.4066      81000
Averages over the last 101 of 201 rows, steps 10000 to 20000:
Temp E_pair E_mol TotEng Press Volume
299.47 -9933.32 681.27 -6441.05 26.0871 34523
Loop time of 448.483 on 1 procs for 20000 steps with 3150 atoms

write_data H2O.data
System init for write_data ...
PPPM initialization ...
  G vector (1/distance) = 0.25369593
  grid = 40 18 18
  stencil order = 5
  estimated absolute RMS force accuracy = 0.0026001601
  estimated relative force accuracy = 7.8303048e-06
  3d grid and FFT values/proc = 29375 12960
Generated 36 of 36 mixed pair_coeff terms from geometric mixing rule
