LAMMPS (7 Feb 2024 - Development - patch_7Feb2024_update1-413-gde8b1b49a6)
# Molecular Dynamics - Input Script for H2O Solvated PEG

# 1) Initialization
units real
atom_style full
bond_style harmonic
angle_style harmonic
dihedral_style harmonic
pair_style lj/cut/coul/long 12
kspace_style pppm 1e-5
special_bonds lj 0.0 0.0 0.5 coul 0.0 0.0 1.0 angle yes dihedral yes

# 2) System Definition
read_data ../pure-H2O/H2O.data     extra/bond/per/atom 3     extra/angle/per/atom 6     extra/dihedral/per/atom 10     extra/special/per/atom 14
Reading data file ...
  orthogonal box = (-33.79757 -11.265857 -11.265857) to (33.79757 11.265857 11.265857)
  reading atoms ...
  3150 atoms
  reading velocities ...
  3150 velocities
  scanning bonds ...
  scanning angles ...
  reading bonds ...
  2100 bonds
  reading angles ...
  1050 angles
Finding 1-2 1-3 1-4 neighbors ...
     2 = max # of 1-2 neighbors
     1 = max # of 1-3 neighbors
     1 = max # of 1-4 neighbors
    16 = max # of special neighbors

# 3) Simulation Settings
include ../H2O-PEG-parameters.lammps
# LAMMPS input script by Simon Gravelle
# This input is part of a tutorial from https://lammpstutorials.github.io
# Last tested using the 2Aug2023 stable LAMMPS version
# This file was released under the GNU general public license v3.0

mass 1 15.9994 # PEG O (GROMOS 54A7)
mass 2 12.011 # PEG C (GROMOS 54A7)
mass 3 1.008 # PEG H (GROMOS 54A7)
mass 4 1.008 # PEG H (GROMOS 54A7)
mass 5 12.011 # PEG C (GROMOS 54A7)
mass 6 15.9994 # PEG O (GROMOS 54A7)
mass 7 15.9994 # PEG O (GROMOS 54A7)
mass 8 15.9994 # H2O O (SPC/Fw)
mass 9 1.008 # H2O H (SPC/Fw)

pair_coeff 1 1 0.2526 2.8492 # PEG O (GROMOS 54A7)
pair_coeff 2 2 0.0663 3.5812 # PEG C (GROMOS 54A7)
pair_coeff 3 3 0.0283 2.3734 # PEG H (GROMOS 54A7)
pair_coeff 4 4 0.0 0.0 # PEG H (GROMOS 54A7)
pair_coeff 5 5 0.2450 2.8114 # PEG C (GROMOS 54A7)
pair_coeff 6 6 0.1195 3.1000 # PEG O (GROMOS 54A7)
pair_coeff 7 7 0.1195 3.1000 # PEG O (GROMOS 54A7)
pair_coeff 8 8 0.155 3.165  # H2O O (SPC/Fw)
pair_coeff 9 9 0.0 0.0 # H2O H (SPC/Fw)

bond_coeff 1 1109.2926 1.12
bond_coeff 2 399.7916 1.43
bond_coeff 3 299.8440 1.52
bond_coeff 4 400.0343 1.53
bond_coeff 5 310.7075 1.41
bond_coeff 6 179.2543 0.971
bond_coeff 7 1059.162 1.012 # H2O O-H (SPC/Fw)

angle_coeff 1 47.6940 109.5
angle_coeff 2 55.1271 109.5
angle_coeff 3 47.6350 109.6
angle_coeff 4 55.1139 111.0
angle_coeff 5 54.9931 110.3
angle_coeff 6 180.4602 109.0
angle_coeff 7 30.1731 110.0
angle_coeff 8 75.90 113.24 # H2O H-O-H (SPC/Fw)

dihedral_coeff 1 0.3011 1 3
dihedral_coeff 2 1.4149 1 3
dihedral_coeff 3 0.2390 -1 3
dihedral_coeff 4 0.0 1 1

molecule PEG_molecule ../single-PEG/PEG_GROMOS.mol
Read molecule template PEG_molecule:
# LAMMPS molecule file for peg
  1 molecules
  0 fragments
  101 atoms with max type 7
  100 bonds with max type 6
  183 angles with max type 7
  210 dihedrals with max type 4
  0 impropers with max type 0
create_atoms 0 single 0 0 0 mol PEG_molecule 454756
Created 101 atoms

group H2O type 8 9
3150 atoms in group H2O
group PEG type 1 2 3 4 5 6 7
101 atoms in group PEG

## Delete any water molecules overlapping with the PEG polymer within 2 Å to avoid future simulation crashing
## Cutoff value of 2 Å was determined through trial & error. If the cutoff is too small, the simulation will crash. If the cutoff is too large, too many water molecules will unnecessarily be deleted
delete_atoms overlap 2.0 H2O PEG mol yes
System init for delete_atoms ...
PPPM initialization ...
  G vector (1/distance) = 0.2537476
  grid = 40 18 18
  stencil order = 5
  estimated absolute RMS force accuracy = 0.002560603
  estimated relative force accuracy = 7.71118e-06
  3d grid and FFT values/proc = 29375 12960
Generated 36 of 36 mixed pair_coeff terms from geometric mixing rule
Deleted 174 atoms, new total = 3077
Deleted 116 bonds, new total = 2084
Deleted 58 angles, new total = 1175
Deleted 0 dihedrals, new total = 210

# 4) Run
minimize 1.0e-4 1.0e-6 1000 10000
PPPM initialization ...
  G vector (1/distance) = 0.25374756
  grid = 40 18 18
  stencil order = 5
  estimated absolute RMS force accuracy = 0.0024868636
  estimated relative force accuracy = 7.489116e-06
  3d grid and FFT values/proc = 29375 12960
Generated 36 of 36 mixed pair_coeff terms from geometric mixing rule
Step          Temp          E_pair         E_mol          TotEng         Press
0   288.03336     -9072.1813      686.00918     -5745.2023      589.50745
Loop time of 13.8304 on 1 procs for 235 steps with 3077 atoms

Minimization stats:
  Stopping criterion = energy tolerance
  Energy initial, next-to-last, final =
  Force two-norm initial, final = 1042.7269 61.997108
  Force max component initial, final = 274.35554 21.532392
  Final line search alpha, max atom move = 0.003721765 0.080138503
  Iterations, force evaluations = 235 461

reset_timestep 0

## Apply the NPT ensemble to all atoms
## Starting temp=300K, target temp=300k, temp dampening constant=100 fs
## Starting pressure=1 atm, target pressure=1 atm, pressure dampening constant=1000fs
## Applies x-axis pressure control (`x`), meaning pressure will be controlled in the x direction (i.e. the simulation box will expand or contact in the x direction)
fix npt_ensemble all npt temp 300 300 100 x 1 1 1000
timestep 1.0

dump dump_all_atoms_per_100_timestep all atom 100 trajectory-output-data/dump_all_atoms_per_100_timestep.lammpstrj
thermo 100

variable solvated_PEG_temp equal temp
variable solvated_PEG_vol equal vol

fix solvated_PEG_ave_temp all ave/time 10 10 100 v_solvated_PEG_temp file ave-time-output-data/ave_solvated_PEG_temperature.dat
fix solvated_PEG_ave_vol all ave/time 10 10 100 v_solvated_PEG_vol file ave-time-output-data/ave_solvated_PEG_volume.dat

variable solvated_PEG_enthalpy equal enthalpy
fix solvated_PEG_ave_enthalpy all ave/time 10 10 100 v_solvated_PEG_enthalpy file ave-time-output-data/ave_solvated_PEG_enthalpy.dat

run 30000
PPPM initialization ...
  G vector (1/distance) = 0.25374756
  grid = 40 18 18
  stencil order = 5
  estimated absolute RMS force accuracy = 0.0024868636
  estimated relative force accuracy = 7.489116e-06
  3d grid and FFT values/proc = 29375 12960
Generated 36 of 36 mixed pair_coeff terms from geometric mixing rule
Step          Temp          E_pair         E_mol          TotEng         Press          Volume
0   288.03336     -12609.729      426.28003     -9542.4791     -1773.3292      34316.573
Averages over the last 151 of 301 rows, steps 15000 to 30000:
Temp E_pair E_mol TotEng Press Volume
300.448 -9947.31 1017.77 -6174.73 3.66176 32202.9
Loop time of 752.664 on 1 procs for 30000 steps with 3077 atoms

write_data solvated_PEG.data
System init for write_data ...
PPPM initialization ...
  G vector (1/distance) = 0.25218253
  grid = 36 18 18
  stencil order = 5
  estimated absolute RMS force accuracy = 0.0028762521
  estimated relative force accuracy = 8.6617476e-06
  3d grid and FFT values/proc = 26875 11664
Generated 36 of 36 mixed pair_coeff terms from geometric mixing rule
