LAMMPS (7 Feb 2024 - Update 1)
# Molecular Dynamics - Input Script for H2O-NaCl Solvated PEG

# 1) Initialization
units real
atom_style full
bond_style harmonic
angle_style harmonic
dihedral_style harmonic
pair_style lj/cut/coul/long 12
kspace_style pppm 1e-5
special_bonds lj 0.0 0.0 0.5 coul 0.0 0.0 1.0 angle yes dihedral yes

# 2) System Definition
read_data H2O_PEG_salt_molecular.data
Reading data file ...
  orthogonal box = (-11.857424 -12.128791 -12.128791) to (60.372587 12.128791 12.128791)
  reading atoms ...
  3146 atoms
  reading velocities ...
  3146 velocities
  scanning bonds ...
  scanning angles ...
  scanning dihedrals ...
  reading bonds ...
  2130 bonds
  reading angles ...
  1198 angles
  reading dihedrals ...
  210 dihedrals
Finding 1-2 1-3 1-4 neighbors ...
     4 = max # of 1-2 neighbors
     6 = max # of 1-3 neighbors
    12 = max # of 1-4 neighbors
    14 = max # of special neighbors

# 3) Simulation Settings
include H2O-PEG-salt-parameters.lammps
mass 1 15.9994 # PEG O
mass 2 12.011 # PEG C
mass 3 1.008 # PEG H
mass 4 1.008 # PEG H
mass 5 12.011 # PEG C
mass 6 15.9994 # PEG O
mass 7 15.9994 # PEG O
mass 8 15.9994 # H2O O
mass 9 1.008 # H2O H
mass 10 22.98 # Na
mass 11 35.453 # Cl

pair_coeff 1 1 0.25265643 2.8491607 # PEG O
pair_coeff 2 2 0.06630155 3.5811794 # PEG C
pair_coeff 3 3 0.028293679 2.373408 # PEG H
pair_coeff 4 4 0.0 0.0 # PEG H
pair_coeff 5 5 0.24501823 2.8114421 # PEG C
pair_coeff 6 6 0.11949714 3.1000042 # PEG O
pair_coeff 7 7 0.11949714 3.1000042 # PEG O
pair_coeff 8 8 0.119431704 3.400251 # H2O O
pair_coeff 9 9 0.0 0.0 # H2O H
pair_coeff 10 10 0.04690 2.43 # Na
pair_coeff 11 11 0.1500 4.045 # Cl

bond_coeff 1 400.05737 1.4
bond_coeff 2 400.0343 1.53
bond_coeff 3 155.35373 1.42
bond_coeff 4 143.40344 1.11
bond_coeff 5 621.4149 0.938
bond_coeff 6 442.1606 0.972

angle_coeff 1 47.555878 103.0
angle_coeff 2 50.17089 108.0
angle_coeff 3 30.173132 109.5
angle_coeff 4 47.69405 109.5
angle_coeff 5 55.12715 109.5
angle_coeff 6 47.634956 109.6
angle_coeff 7 55.113907 111.0
angle_coeff 8 59.79372 115.0
angle_coeff 9 52.476738 107.57
angle_coeff 10 54.956596 107.6
angle_coeff 11 54.993103 110.3
angle_coeff 12 55.0234 111.4
angle_coeff 13 30.173132 110.0
angle_coeff 14 509.99622 112.0
angle_coeff 15 47.555878 103.0

dihedral_coeff 1 0.30114722 1 3
dihedral_coeff 2 1.414914 1 3
dihedral_coeff 3 0.0 1 1

create_atoms 10 random 20 456415 NULL overlap 0.5 maxtry 50
Created 20 atoms
create_atoms 11 random 20 456415 NULL overlap 0.5 maxtry 50
Created 20 atoms

group H2O type 8 9
3045 atoms in group H2O
group PEG type 1 2 3 4 5 6 7
101 atoms in group PEG
group NaCl type 10 11
40 atoms in group NaCl

set type 10 charge 1
Setting atom values ...
  20 settings made for charge
set type 11 charge -1
Setting atom values ...
  20 settings made for charge

minimize 1.0e-4 1.0e-6 100 1000
PPPM initialization ...
  G vector (1/distance) = 0.24932057
  grid = 40 18 18
  stencil order = 5
  estimated absolute RMS force accuracy = 0.0032601146
  estimated relative force accuracy = 9.8177383e-06
  3d grid and FFT values/proc = 29375 12960
Generated 55 of 55 mixed pair_coeff terms from geometric mixing rule
Step          Temp          E_pair         E_mol          TotEng         Press
0   300.95158      37598254       1449.7516      37602561       2.4272101e+08
Loop time of 3.76838 on 1 procs for 100 steps with 3186 atoms

Minimization stats:
  Stopping criterion = max iterations
  Energy initial, next-to-last, final =
  Force two-norm initial, final = 4.1179229e+08 170.2426
  Force max component initial, final = 2.2470317e+08 58.393275
  Final line search alpha, max atom move = 0.0016683454 0.097420153
  Iterations, force evaluations = 100 171

reset_timestep 0

fix npt_ensemble all npt temp 300 300 100 iso 1 1 1000

variable peg_com_x equal xcm(PEG,x)
variable peg_com_y equal xcm(PEG,y)
variable peg_com_z equal xcm(PEG,z)
fix recenter_PEG PEG recenter 23.2765843356395 -2.11583485048627 2.32888506828211

timestep 1.0
thermo 5000
dump dump_all_atoms_per_1000_timestep all atom 1000 trajectory-output-data/dump_all_atoms_per_1000_timestep.lammpstrj

run 50000
PPPM initialization ...
  G vector (1/distance) = 0.24932057
  grid = 40 18 18
  stencil order = 5
  estimated absolute RMS force accuracy = 0.0032601146
  estimated relative force accuracy = 9.8177383e-06
  3d grid and FFT values/proc = 29375 12960
Generated 55 of 55 mixed pair_coeff terms from geometric mixing rule
Step          Temp          E_pair         E_mol          TotEng         Press          Volume
0   300.95158     -13297.206      529.71901     -9910.289      -431.60358      42502.323
Averages over the last 6 of 11 rows, steps 25000 to 50000:
Temp E_pair E_mol TotEng Press Volume
303.245 -11823.8 1447.21 -7497.63 -88.626 41480
Loop time of 898.81 on 1 procs for 50000 steps with 3186 atoms
