LAMMPS (7 Feb 2024 - Update 1)
# Molecular Dynamics - Input Script for Deformation of H2O Solvated PEG

# 1) Initialization
units real
atom_style full
bond_style harmonic
angle_style harmonic
dihedral_style harmonic
pair_style lj/cut/coul/long 12
kspace_style pppm 1e-5
special_bonds lj 0.0 0.0 0.5 coul 0.0 0.0 1.0 angle yes dihedral yes
variable force_0 equal 5

# 2) System Definition
read_data ../solvated-PEG/solvated_PEG.data
Reading data file ...
  orthogonal box = (-11.941243 -12.049871 -12.049871) to (60.357981 12.049871 12.049871)
  reading atoms ...
  3125 atoms
  reading velocities ...
  3125 velocities
  scanning bonds ...
  scanning angles ...
  scanning dihedrals ...
  reading bonds ...
  2116 bonds
  reading angles ...
  1191 angles
  reading dihedrals ...
  210 dihedrals
Finding 1-2 1-3 1-4 neighbors ...
     4 = max # of 1-2 neighbors
     6 = max # of 1-3 neighbors
    12 = max # of 1-4 neighbors
    14 = max # of special neighbors

# 3) Simulation Settings
include ../parameters.lammps
mass 1 15.9994 # PEG O
mass 2 12.011 # PEG C
mass 3 1.008 # PEG H
mass 4 1.008 # PEG H
mass 5 12.011 # PEG C
mass 6 15.9994 # PEG O
mass 7 15.9994 # PEG O
mass 8 15.9994 # H2O O
mass 9 1.008 # H2O H

pair_coeff 1 1 0.25265643 2.8491607
pair_coeff 2 2 0.06630155 3.5811794
pair_coeff 3 3 0.028293679 2.373408
pair_coeff 4 4 0.0 0.0
pair_coeff 5 5 0.24501823 2.8114421
pair_coeff 6 6 0.11949714 3.1000042
pair_coeff 7 7 0.11949714 3.1000042
pair_coeff 8 8 0.119431704 3.400251
pair_coeff 9 9 0.0 0.0

bond_coeff 1 400.05737 1.4
bond_coeff 2 400.0343 1.53
bond_coeff 3 155.35373 1.42
bond_coeff 4 143.40344 1.11
bond_coeff 5 621.4149 0.938
bond_coeff 6 442.1606 0.972

angle_coeff 1 47.555878 103.0
angle_coeff 2 50.17089 108.0
angle_coeff 3 30.173132 109.5
angle_coeff 4 47.69405 109.5
angle_coeff 5 55.12715 109.5
angle_coeff 6 47.634956 109.6
angle_coeff 7 55.113907 111.0
angle_coeff 8 59.79372 115.0
angle_coeff 9 52.476738 107.57
angle_coeff 10 54.956596 107.6
angle_coeff 11 54.993103 110.3
angle_coeff 12 55.0234 111.4
angle_coeff 13 30.173132 110.0
angle_coeff 14 509.99622 112.0
angle_coeff 15 47.555878 103.0

dihedral_coeff 1 0.30114722 1 3
dihedral_coeff 2 1.414914 1 3
dihedral_coeff 3 0.0 1 1

group H2O type 8 9
3024 atoms in group H2O
group PEG type 1 2 3 4 5 6 7
101 atoms in group PEG

group pull_oxygen_6 type 6
1 atoms in group pull_oxygen_6
group pull_oxygen_7 type 7
1 atoms in group pull_oxygen_7

# 4) Run
fix nvt_ensemble all nvt temp 300 300 100
timestep 1.0

dump dump_all_atoms_per_1000_timestep all atom 1000 trajectory-output-data/dump_all_atoms_per_1000_timestep-2.lammpstrj

variable solvated_PEG_temp equal temp
fix solvated_PEG_ave_temp all ave/time 10 10 100 v_solvated_PEG_temp file ave-time-output-data/ave_solvated_PEG_temperature-2.dat

variable oxygen_6_x_coordinate equal xcm(pull_oxygen_6,x)
variable oxygen_6_y_coordinate equal xcm(pull_oxygen_6,y)
variable oxygen_6_z_coordinate equal xcm(pull_oxygen_6,z)
variable oxygen_7_x_coordinate equal xcm(pull_oxygen_7,x)
variable oxygen_7_y_coordinate equal xcm(pull_oxygen_7,y)
variable oxygen_7_z_coordinate equal xcm(pull_oxygen_7,z)
variable oxygen_6_7_distance equal sqrt((v_oxygen_6_x_coordinate-v_oxygen_7_x_coordinate)^2+(v_oxygen_6_y_coordinate-v_oxygen_7_y_coordinate)^2+(v_oxygen_7_x_coordinate-v_oxygen_7_z_coordinate)^2)

fix ave_oxygen_6_7_distance all ave/time 10 10 100 v_oxygen_6_7_distance file ave-time-output-data/ave_PEG_end_to_end_distance-2.dat
thermo 1000

variable peg_com_x equal xcm(PEG,x)
variable peg_com_y equal xcm(PEG,y)
variable peg_com_z equal xcm(PEG,z)

fix recenter_PEG PEG recenter 25.694713920804 1.19595643116846 1.71273093069621

run 30000
PPPM initialization ...
  G vector (1/distance) = 0.24952423
  grid = 40 18 18
  stencil order = 5
  estimated absolute RMS force accuracy = 0.0031205121
  estimated relative force accuracy = 9.3973294e-06
  3d grid and FFT values/proc = 29375 12960
Generated 36 of 36 mixed pair_coeff terms from geometric mixing rule
Step          Temp          E_pair         E_mol          TotEng         Press
0   305.50623     -7630.4617      1403.7938     -3381.7785      341.1264
Averages over the last 16 of 31 rows, steps 15000 to 30000:
Temp E_pair E_mol TotEng Press
300.152 -7669.8 1411.81 -3462.96 94.7915
Loop time of 472.372 on 1 procs for 30000 steps with 3125 atoms

fix oxygen_6_force pull_oxygen_6 addforce 5 0 0
fix oxygen_7_force pull_oxygen_7 addforce -5 0 0

variable peg_com_x equal xcm(PEG,x)
variable peg_com_y equal xcm(PEG,y)
variable peg_com_z equal xcm(PEG,z)

fix recenter_PEG PEG recenter 25.694713920804 1.19595643116846 1.71273093069621

run 30000
PPPM initialization ...
  G vector (1/distance) = 0.24952423
  grid = 40 18 18
  stencil order = 5
  estimated absolute RMS force accuracy = 0.0031205121
  estimated relative force accuracy = 9.3973294e-06
  3d grid and FFT values/proc = 29375 12960
Generated 36 of 36 mixed pair_coeff terms from geometric mixing rule
Step          Temp          E_pair         E_mol          TotEng         Press
30000   295.78463     -7740.9372      1495.4581     -3491.1176     -769.6207
Averages over the last 16 of 31 rows, steps 45000 to 60000:
Temp E_pair E_mol TotEng Press
302.381 -7654.74 1407.61 -3431.35 -317.138
Loop time of 474.382 on 1 procs for 30000 steps with 3125 atoms
