LAMMPS (7 Feb 2024 - Update 1)
# Molecular Dynamics - Deformation of Carbon Nanotube with Breakable Bonds

# 1) Initialization
## Define simulation temperature, T=300K
variable T equal 300

units metal
atom_style atomic
boundary f f f
pair_style airebo 2.5 1 1

# 2) System definition
## Import VMD generated initial carbon nanotube topology. Topology from cnt_molecular.data has been altered to be compatible with the AIREBO potential
read_data cnt_atomic.data
Reading data file ...
  orthogonal box = (-40 -40 -12.130411) to (40 40 67.869589)
  reading atoms ...
  700 atoms

# 3) Simulation settings
## Import parameters/coefficients for the AIREBO potential. This file is from the original 'Stuart' paper
pair_coeff * * CH.airebo C
Reading airebo potential file CH.airebo with DATE: 2011-10-25

## Center the simulation box about the origin (0, 0, 0) by altering dimensions to be from -40 to 40 in x, y & z directions
## Increase box size along z-axis to 120 Å to allow for larger deformation in z-direction
change_box all x final -40 40 y final -40 40 z final -60 60
Changing box ...
  orthogonal box = (-40 -40 -12.130411) to (40 40 67.869589)
  orthogonal box = (-40 -40 -12.130411) to (40 40 67.869589)
  orthogonal box = (-40 -40 -60) to (40 40 60)

## Calculate the negative of the x, y & z centre of mass (cm) components of the carbon_atoms group
## Recenter the carbon nanotube at the origin (0, 0, 0) by displacing them by the calculated center of mass variables
group carbon_atoms type 1
700 atoms in group carbon_atoms
variable carbon_xcm equal -1*xcm(carbon_atoms,x)
variable carbon_ycm equal -1*xcm(carbon_atoms,y)
variable carbon_zcm equal -1*xcm(carbon_atoms,z)
displace_atoms carbon_atoms move 8.45130634422529e-18 1.0914862143567e-15 -27.8695884500003
Displacing atoms ...

## Define top edge region, bottom edge region, & middle region of carbon nanotube
variable zmax equal bound(carbon_atoms,zmax)-0.5 # (- 0.5 Å)
variable zmin equal bound(carbon_atoms,zmin)+0.5 # (+ 0.5 Å)
region region_top block INF INF INF INF 27.3695895499997 INF
region region_bottom block INF INF INF INF INF -27.3695884500003
region region_middle block INF INF INF INF -27.3695884500003 27.3695895499997

## Group atoms according to these regions
group carbon_top region region_top
10 atoms in group carbon_top
group carbon_bottom region region_bottom
10 atoms in group carbon_bottom
group carbon_middle region region_middle
680 atoms in group carbon_middle

# 4) Visualization

# 5) Run
## Re-order atoms by their IDs since atoms have deleted
reset_atoms id sort yes

## Initialize velocities of atoms in the carbon_middle group at T (300 K) with no overall translational momentum (`mom yes``) or rotational momentum (`rot yes`)
## As a result of `mom yes` and `rot yes`, the systems net movement and rotation is null
velocity carbon_middle create 300 48455 mom yes rot yes

## Apply the NVE ensemble to the system
fix nve_ensemble all nve

## Calculate the temperature of the carbon_middle group
compute carbon_middle_temp carbon_middle temp

fix berendsen_thermostat carbon_middle temp/berendsen 300 300 0.1

## Modify Berendsen thermostat fix to use the temperature calculated by carbon_middle_temp compute command
fix_modify berendsen_thermostat temp carbon_middle_temp

## Apply an initial velocity of zero in the x, y and z directions to the top and bottom carbon groups
velocity carbon_top set 0 0 0
velocity carbon_bottom set 0 0 0

## Ensure all forces affecting the top and bottom carbon groups are constant. Because inital velocity is zero, this ensures they remain immobile during the simulation
fix carbon_top_force carbon_top setforce 0 0 0
fix carbon_bottom_force carbon_bottom setforce 0 0 0

## Output state of all atoms every 1000 timesteps
dump dump_all_atoms_per_1000_timestep all atom 1000 trajectory-output-data/dump_all_atoms_per_1000_timestep-1.lammpstrj

## Output thermodynamic data every 100 timesteps. Particularly the temperature of the carbon_middle group
thermo 100
thermo_modify temp carbon_middle_temp

## Set simulation timestep to 0.0005 picoseconds (0.5 femtoseconds) and run initial simulation of 5000 timesteps to equilibrate the system before applying any deformation
## Need to use a smaller timestep of 0.0005 ps (0.5 fm) as reactive force fields usually require smaller timesteps than classical/non-reactive force fields
timestep 0.0005
run 5000
Step          Temp          E_pair         E_mol          TotEng         Press
0   300           -5084.7276      0             -5058.3973     -710.48517
Averages over the last 26 of 51 rows, steps 2500 to 5000:
Temp E_pair E_mol TotEng Press
300.097 -5064.91 0 -5038.57 -328.108
Loop time of 16.2614 on 1 procs for 5000 steps with 700 atoms

## Apply a constant velocity of 0.15 Å/ps in the z-direction to the top carbon group, simulating a compressive force
## Run deformation simulation of 280,000 timesteps
## Because we have previously set all forces affecting the top and bottom carbon groups as constant, this imposes a constant velocity deformation of 0.15 A/ps = 15 m/s
velocity carbon_top set 0 0 0.15
run 280000
Step          Temp          E_pair         E_mol          TotEng         Press
5000   308.96754     -5065.6396      0             -5038.5222     -290.3558
Averages over the last 1401 of 2801 rows, steps 145000 to 285000:
Temp E_pair E_mol TotEng Press
313.594 -4720.29 0 -4692.76 -1843.89
Loop time of 983.818 on 1 procs for 280000 steps with 700 atoms
