LAMMPS (7 Feb 2024 - Update 1)
# Molecular Dynamics - Input Script for Calculating Radial Distribution Function Between H2O Oxygen & PEG Oxygen

# 1) Initialization
units real
atom_style full
bond_style harmonic
angle_style harmonic
dihedral_style harmonic
pair_style lj/cut/coul/long 12
kspace_style pppm 1e-5
special_bonds lj 0.0 0.0 0.5 coul 0.0 0.0 1.0 angle yes dihedral yes
variable force_0 equal 5

# 2) System Definition
read_data ../../solvated-PEG/solvated_PEG.data
Reading data file ...
  orthogonal box = (-11.941243 -12.049871 -12.049871) to (60.357981 12.049871 12.049871)
  reading atoms ...
  3125 atoms
  reading velocities ...
  3125 velocities
  scanning bonds ...
  scanning angles ...
  scanning dihedrals ...
  reading bonds ...
  2116 bonds
  reading angles ...
  1191 angles
  reading dihedrals ...
  210 dihedrals
Finding 1-2 1-3 1-4 neighbors ...
     4 = max # of 1-2 neighbors
     6 = max # of 1-3 neighbors
    12 = max # of 1-4 neighbors
    14 = max # of special neighbors

# 3) Simulation Settings
include ../../H2O-PEG-parameters.lammps
mass 1 15.9994 # PEG O
mass 2 12.011 # PEG C
mass 3 1.008 # PEG H
mass 4 1.008 # PEG H
mass 5 12.011 # PEG C
mass 6 15.9994 # PEG O
mass 7 15.9994 # PEG O
mass 8 15.9994 # H2O O
mass 9 1.008 # H2O H

pair_coeff 1 1 0.25265643 2.8491607
pair_coeff 2 2 0.06630155 3.5811794
pair_coeff 3 3 0.028293679 2.373408
pair_coeff 4 4 0.0 0.0
pair_coeff 5 5 0.24501823 2.8114421
pair_coeff 6 6 0.11949714 3.1000042
pair_coeff 7 7 0.11949714 3.1000042
pair_coeff 8 8 0.119431704 3.400251
pair_coeff 9 9 0.0 0.0

bond_coeff 1 400.05737 1.4
bond_coeff 2 400.0343 1.53
bond_coeff 3 155.35373 1.42
bond_coeff 4 143.40344 1.11
bond_coeff 5 621.4149 0.938
bond_coeff 6 442.1606 0.972

angle_coeff 1 47.555878 103.0
angle_coeff 2 50.17089 108.0
angle_coeff 3 30.173132 109.5
angle_coeff 4 47.69405 109.5
angle_coeff 5 55.12715 109.5
angle_coeff 6 47.634956 109.6
angle_coeff 7 55.113907 111.0
angle_coeff 8 59.79372 115.0
angle_coeff 9 52.476738 107.57
angle_coeff 10 54.956596 107.6
angle_coeff 11 54.993103 110.3
angle_coeff 12 55.0234 111.4
angle_coeff 13 30.173132 110.0
angle_coeff 14 509.99622 112.0
angle_coeff 15 47.555878 103.0

dihedral_coeff 1 0.30114722 1 3
dihedral_coeff 2 1.414914 1 3
dihedral_coeff 3 0.0 1 1

group H2O type 8 9
3024 atoms in group H2O
group PEG type 1 2 3 4 5 6 7
101 atoms in group PEG

group pull_oxygen_6 type 6
1 atoms in group pull_oxygen_6
group pull_oxygen_7 type 7
1 atoms in group pull_oxygen_7

# 4) Run
fix nvt_ensemble all nvt temp 300 300 100
timestep 1.0

thermo 1000

dump dump_all_atoms_per_1000_timestep all atom 1000 trajectory-output-data/dump_all_atoms_per_1000_timestep.lammpstrj

compute PEG_H2O_RDF all rdf 200 1 8 2 8 cutoff 10
fix ave_PEG_H2O_RDF all ave/time 10 4000 50000 c_PEG_H2O_RDF[*] file ave-time-output-data/ave_PEG_H2O_RDF_initial.dat mode vector

variable peg_com_x equal xcm(PEG,x)
variable peg_com_y equal xcm(PEG,y)
variable peg_com_z equal xcm(PEG,z)
fix recenter_PEG PEG recenter 25.694713920804 1.19595643116846 1.71273093069621

run 50000
PPPM initialization ...
  G vector (1/distance) = 0.24952423
  grid = 40 18 18
  stencil order = 5
  estimated absolute RMS force accuracy = 0.0031205121
  estimated relative force accuracy = 9.3973294e-06
  3d grid and FFT values/proc = 29375 12960
Generated 36 of 36 mixed pair_coeff terms from geometric mixing rule
Step          Temp          E_pair         E_mol          TotEng         Press
0   305.50623     -7630.4617      1403.7938     -3381.7785      341.1264
Averages over the last 26 of 51 rows, steps 25000 to 50000:
Temp E_pair E_mol TotEng Press
300.573 -7663.33 1427.06 -3437.32 -229.596
Loop time of 810.048 on 1 procs for 50000 steps with 3125 atoms

unfix ave_PEG_H2O_RDF

fix oxygen_6_force pull_oxygen_6 addforce 5 0 0
fix oxygen_7_force pull_oxygen_7 addforce -5 0 0

fix ave_PEG_H2O_RDF all ave/time 10 4000 50000 c_PEG_H2O_RDF[*] file ave-time-output-data/ave_PEG_H2O_RDF_final.dat mode vector

run 50000
PPPM initialization ...
  G vector (1/distance) = 0.24952423
  grid = 40 18 18
  stencil order = 5
  estimated absolute RMS force accuracy = 0.0031205121
  estimated relative force accuracy = 9.3973294e-06
  3d grid and FFT values/proc = 29375 12960
Generated 36 of 36 mixed pair_coeff terms from geometric mixing rule
Step          Temp          E_pair         E_mol          TotEng         Press
50000   297.85128     -7722.2438      1465.0998     -3483.5378     -220.04988
Averages over the last 26 of 51 rows, steps 75000 to 100000:
Temp E_pair E_mol TotEng Press
300.899 -7686.48 1442.52 -3441.98 -231.342
Loop time of 805.542 on 1 procs for 50000 steps with 3125 atoms
